
 OpenBabel11022421463D

 43 44  0  0  1  0  0  0  0  0999 V2000
    3.5718   -1.3152   -2.6725 C   0  0  0  0  0  0  0  0  0  0  0  0
    3.1693    0.1342   -2.4657 C   0  0  0  0  0  0  0  0  0  0  0  0
    2.8456    0.8019   -3.4515 O   0  0  0  0  0  0  0  0  0  0  0  0
    3.1979    0.7294   -1.0197 C   0  0  1  0  0  0  0  0  0  0  0  0
    2.2736   -0.1797   -0.1657 C   0  0  0  0  0  0  0  0  0  0  0  0
    4.7022    0.7397   -0.5302 C   0  0  2  0  0  0  0  0  0  0  0  0
    4.9454   -0.0548    0.7711 C   0  0  0  0  0  0  0  0  0  0  0  0
    5.4612    2.1129   -0.4321 C   0  0  2  0  0  0  0  0  0  0  0  0
    4.6310    3.3549   -0.6404 C   0  0  0  0  0  0  0  0  0  0  0  0
    3.3256    3.3343   -0.9311 C   0  0  0  0  0  0  0  0  0  0  0  0
    2.4891    2.1138   -1.0337 C   0  0  0  0  0  0  0  0  0  0  0  0
    5.3470    4.6703   -0.4385 C   0  0  0  0  0  0  0  0  0  0  0  0
    6.6271    4.7532   -1.2589 C   0  0  0  0  0  0  0  0  0  0  0  0
    7.5049    3.5245   -1.0419 C   0  0  0  0  0  0  0  0  0  0  0  0
    6.7679    2.1833   -1.3231 C   0  0  0  0  0  0  0  0  0  0  0  0
    6.4415    2.0834   -2.8309 C   0  0  0  0  0  0  0  0  0  0  0  0
    7.7623    1.0538   -0.9707 C   0  0  0  0  0  0  0  0  0  0  0  0
    3.4631   -1.5674   -3.7322 H   0  0  0  0  0  0  0  0  0  0  0  0
    2.9254   -1.9893   -2.1090 H   0  0  0  0  0  0  0  0  0  0  0  0
    4.6161   -1.4779   -2.4004 H   0  0  0  0  0  0  0  0  0  0  0  0
    2.1941    0.1925    0.8624 H   0  0  0  0  0  0  0  0  0  0  0  0
    2.6148   -1.2168   -0.1133 H   0  0  0  0  0  0  0  0  0  0  0  0
    1.2583   -0.2053   -0.5815 H   0  0  0  0  0  0  0  0  0  0  0  0
    5.2547    0.1573   -1.2677 H   0  0  0  0  0  0  0  0  0  0  0  0
    4.4145    0.3915    1.6172 H   0  0  0  0  0  0  0  0  0  0  0  0
    6.0107   -0.0783    1.0217 H   0  0  0  0  0  0  0  0  0  0  0  0
    4.6404   -1.0999    0.6638 H   0  0  0  0  0  0  0  0  0  0  0  0
    5.8127    2.1979    0.6096 H   0  0  0  0  0  0  0  0  0  0  0  0
    2.7908    4.2760   -1.0532 H   0  0  0  0  0  0  0  0  0  0  0  0
    1.8543    2.2256   -1.9208 H   0  0  0  0  0  0  0  0  0  0  0  0
    1.7850    2.1801   -0.1922 H   0  0  0  0  0  0  0  0  0  0  0  0
    5.5917    4.7727    0.6277 H   0  0  0  0  0  0  0  0  0  0  0  0
    4.7070    5.5226   -0.6931 H   0  0  0  0  0  0  0  0  0  0  0  0
    7.1843    5.6531   -0.9736 H   0  0  0  0  0  0  0  0  0  0  0  0
    6.3862    4.8633   -2.3217 H   0  0  0  0  0  0  0  0  0  0  0  0
    7.8606    3.5314   -0.0013 H   0  0  0  0  0  0  0  0  0  0  0  0
    8.3998    3.6092   -1.6713 H   0  0  0  0  0  0  0  0  0  0  0  0
    5.7015    2.8250   -3.1474 H   0  0  0  0  0  0  0  0  0  0  0  0
    6.0484    1.0986   -3.0987 H   0  0  0  0  0  0  0  0  0  0  0  0
    7.3428    2.2436   -3.4340 H   0  0  0  0  0  0  0  0  0  0  0  0
    8.0024    1.0592    0.0981 H   0  0  0  0  0  0  0  0  0  0  0  0
    8.7037    1.1768   -1.5196 H   0  0  0  0  0  0  0  0  0  0  0  0
    7.3787    0.0616   -1.2250 H   0  0  0  0  0  0  0  0  0  0  0  0
  1  2  1  0  0  0  0
  1 18  1  0  0  0  0
  1 19  1  0  0  0  0
  1 20  1  0  0  0  0
  2  3  2  0  0  0  0
  4  6  1  0  0  0  0
  4 11  1  0  0  0  0
  4  5  1  0  0  0  0
  4  2  1  6  0  0  0
  5 21  1  0  0  0  0
  5 22  1  0  0  0  0
  5 23  1  0  0  0  0
  6  7  1  0  0  0  0
  6  8  1  0  0  0  0
  6 24  1  6  0  0  0
  7 25  1  0  0  0  0
  7 26  1  0  0  0  0
  7 27  1  0  0  0  0
  8  9  1  0  0  0  0
  8 15  1  0  0  0  0
  8 28  1  1  0  0  0
  9 10  2  0  0  0  0
  9 12  1  0  0  0  0
 10 11  1  0  0  0  0
 10 29  1  0  0  0  0
 11 30  1  0  0  0  0
 11 31  1  0  0  0  0
 12 13  1  0  0  0  0
 12 32  1  0  0  0  0
 12 33  1  0  0  0  0
 13 14  1  0  0  0  0
 13 34  1  0  0  0  0
 13 35  1  0  0  0  0
 14 15  1  0  0  0  0
 14 36  1  0  0  0  0
 14 37  1  0  0  0  0
 15 16  1  0  0  0  0
 15 17  1  0  0  0  0
 16 38  1  0  0  0  0
 16 39  1  0  0  0  0
 16 40  1  0  0  0  0
 17 41  1  0  0  0  0
 17 42  1  0  0  0  0
 17 43  1  0  0  0  0
M  END
$$$$
