Test
 OpenBabel07232516423D

 30 32  0     0  0  0  0  0  0999 V2000
    0.6907    0.5706   -1.0186 C   0  0  0  0  0  0  0  0  0  0  0  0
    2.1391    0.2209   -1.4078 C   0  0  0  0  0  0  0  0  0  0  0  0
    2.4104   -0.0263   -2.5503 O   0  0  0  0  0  0  0  0  0  0  0  0
    2.8002   -0.4760   -0.3485 O   0  0  0  0  0  0  0  0  0  0  0  0
    4.2011   -0.5709   -0.6197 C   0  0  0  0  0  0  0  0  0  0  0  0
    4.4521   -1.7698   -1.5530 C   0  0  0  0  0  0  0  0  0  0  0  0
    4.9360   -2.8517   -0.5697 C   0  0  0  0  0  0  0  0  0  0  0  0
    4.2515   -2.4478    0.7494 C   0  0  0  0  0  0  0  0  0  0  0  0
    4.8139   -1.0145    0.7217 C   0  0  0  0  0  0  0  0  0  0  0  0
    6.3108   -1.2032    0.4129 C   0  0  0  0  0  0  0  0  0  0  0  0
    6.3709   -2.6737   -0.0395 C   0  0  0  0  0  0  0  0  0  0  0  0
    7.7986   -2.5853   -0.6100 C   0  0  0  0  0  0  0  0  0  0  0  0
    8.5033   -1.8443    0.2560 C   0  0  0  0  0  0  0  0  0  0  0  0
    7.5981   -1.0945    1.2511 C   0  0  0  0  0  0  0  0  0  0  0  0
    0.0353   -0.2631   -1.2709 H   0  0  0  0  0  0  0  0  0  0  0  0
    0.3729    1.4608   -1.5613 H   0  0  0  0  0  0  0  0  0  0  0  0
    0.6418    0.7623    0.0533 H   0  0  0  0  0  0  0  0  0  0  0  0
    4.7387    0.3000   -0.9946 H   0  0  0  0  0  0  0  0  0  0  0  0
    5.2287   -1.5750   -2.2926 H   0  0  0  0  0  0  0  0  0  0  0  0
    3.5477   -2.1111   -2.0569 H   0  0  0  0  0  0  0  0  0  0  0  0
    4.7467   -3.9057   -0.7727 H   0  0  0  0  0  0  0  0  0  0  0  0
    4.5150   -3.1513    1.5392 H   0  0  0  0  0  0  0  0  0  0  0  0
    3.1698   -2.4407    0.6155 H   0  0  0  0  0  0  0  0  0  0  0  0
    4.7016   -0.5029    1.6776 H   0  0  0  0  0  0  0  0  0  0  0  0
    6.3982   -0.5615   -0.4639 H   0  0  0  0  0  0  0  0  0  0  0  0
    6.3716   -3.3121    0.8439 H   0  0  0  0  0  0  0  0  0  0  0  0
    8.2556   -3.4561   -1.0800 H   0  0  0  0  0  0  0  0  0  0  0  0
    9.4561   -1.4104   -0.0474 H   0  0  0  0  0  0  0  0  0  0  0  0
    7.8887   -0.0523    1.3828 H   0  0  0  0  0  0  0  0  0  0  0  0
    7.5064   -1.5724    2.2264 H   0  0  0  0  0  0  0  0  0  0  0  0
  1  2 1.00  0  0  0  0
  1 15 1.00  0  0  0  0
  1 16 1.00  0  0  0  0
  1 17 1.00  0  0  0  0
  2  3 2.00  0  0  0  0
  2  4 1.00  0  0  0  0
  4  5 1.00  0  0  0  0
  5  6 1.00  0  0  0  0
  5  9 1.00  0  0  0  0
  5 18 1.00  0  0  0  0
  6  7 1.00  0  0  0  0
  6 19 1.00  0  0  0  0
  6 20 1.00  0  0  0  0
  7  8 1.00  0  0  0  0
  7 11 1.00  0  0  0  0
  7 21 1.00  0  0  0  0
  8  9 1.00  0  0  0  0
  8 22 1.00  0  0  0  0
  8 23 1.00  0  0  0  0
  9 10 1.00  0  0  0  0
  9 24 1.00  0  0  0  0
 10 11 1.00  0  0  0  0
 10 14 1.00  0  0  0  0
 10 25 1.00  0  0  0  0
 11 12 1.00  0  0  0  0
 11 26 1.00  0  0  0  0
 12 13 2.00  0  0  0  0
 12 27 1.00  0  0  0  0
 13 14 1.00  0  0  0  0
 13 28 1.00  0  0  0  0
 14 29 1.00  0  0  0  0
 14 30 1.00  0  0  0  0
M  END

