Test
 OpenBabel07232516423D

 30 32  0     0  0  0  0  0  0999 V2000
    8.8711    0.7052    0.0288 C   0  0  0  0  0  0  0  0  0  0  0  0
    7.7793    0.0466   -0.8348 C   0  0  0  0  0  0  0  0  0  0  0  0
    7.0027    0.7292   -1.4439 O   0  0  0  0  0  0  0  0  0  0  0  0
    7.3171   -1.1074   -0.1282 O   0  0  0  0  0  0  0  0  0  0  0  0
    6.1486   -1.7470   -0.6480 C   0  0  0  0  0  0  0  0  0  0  0  0
    4.7959   -1.0383   -0.8470 C   0  0  0  0  0  0  0  0  0  0  0  0
    4.2876   -1.8008   -2.0847 C   0  0  0  0  0  0  0  0  0  0  0  0
    4.8648   -3.1976   -1.7891 C   0  0  0  0  0  0  0  0  0  0  0  0
    6.3267   -2.7104   -1.8362 C   0  0  0  0  0  0  0  0  0  0  0  0
    6.2612   -2.2486   -3.3038 C   0  0  0  0  0  0  0  0  0  0  0  0
    5.1012   -1.2352   -3.2636 C   0  0  0  0  0  0  0  0  0  0  0  0
    4.8819   -1.1860   -4.7871 C   0  0  0  0  0  0  0  0  0  0  0  0
    6.0861   -1.3162   -5.3604 C   0  0  0  0  0  0  0  0  0  0  0  0
    7.2116   -1.6819   -4.3749 C   0  0  0  0  0  0  0  0  0  0  0  0
    9.8534    0.3976   -0.3300 H   0  0  0  0  0  0  0  0  0  0  0  0
    8.7551    0.3871    1.0649 H   0  0  0  0  0  0  0  0  0  0  0  0
    8.7830    1.7896   -0.0375 H   0  0  0  0  0  0  0  0  0  0  0  0
    6.1271   -2.3167    0.2810 H   0  0  0  0  0  0  0  0  0  0  0  0
    4.9624    0.0073   -1.1057 H   0  0  0  0  0  0  0  0  0  0  0  0
    4.1612   -1.2102    0.0223 H   0  0  0  0  0  0  0  0  0  0  0  0
    3.2408   -1.8913   -2.3749 H   0  0  0  0  0  0  0  0  0  0  0  0
    4.5701   -3.8884   -2.5791 H   0  0  0  0  0  0  0  0  0  0  0  0
    4.5053   -3.5685   -0.8293 H   0  0  0  0  0  0  0  0  0  0  0  0
    7.0570   -3.5134   -1.7355 H   0  0  0  0  0  0  0  0  0  0  0  0
    5.8855   -3.2185   -3.6299 H   0  0  0  0  0  0  0  0  0  0  0  0
    5.5629   -0.3048   -2.9329 H   0  0  0  0  0  0  0  0  0  0  0  0
    4.1482   -0.4998   -5.2101 H   0  0  0  0  0  0  0  0  0  0  0  0
    6.3177   -0.7667   -6.2728 H   0  0  0  0  0  0  0  0  0  0  0  0
    7.8556   -0.8781   -4.0181 H   0  0  0  0  0  0  0  0  0  0  0  0
    7.8251   -2.4860   -4.7813 H   0  0  0  0  0  0  0  0  0  0  0  0
  1  2 1.00  0  0  0  0
  1 15 1.00  0  0  0  0
  1 16 1.00  0  0  0  0
  1 17 1.00  0  0  0  0
  2  3 2.00  0  0  0  0
  2  4 1.00  0  0  0  0
  4  5 1.00  0  0  0  0
  5  6 1.00  0  0  0  0
  5  9 1.00  0  0  0  0
  5 18 1.00  0  0  0  0
  6  7 1.00  0  0  0  0
  6 19 1.00  0  0  0  0
  6 20 1.00  0  0  0  0
  7  8 1.00  0  0  0  0
  7 11 1.00  0  0  0  0
  7 21 1.00  0  0  0  0
  8  9 1.00  0  0  0  0
  8 22 1.00  0  0  0  0
  8 23 1.00  0  0  0  0
  9 10 1.00  0  0  0  0
  9 24 1.00  0  0  0  0
 10 11 1.00  0  0  0  0
 10 14 1.00  0  0  0  0
 10 25 1.00  0  0  0  0
 11 12 1.00  0  0  0  0
 11 26 1.00  0  0  0  0
 12 13 2.00  0  0  0  0
 12 27 1.00  0  0  0  0
 13 14 1.00  0  0  0  0
 13 28 1.00  0  0  0  0
 14 29 1.00  0  0  0  0
 14 30 1.00  0  0  0  0
M  END

