Test
 OpenBabel07232516413D

 30 32  0     0  0  0  0  0  0999 V2000
    2.3669   -2.8739   -0.5796 C   0  0  0  0  0  0  0  0  0  0  0  0
    3.8101   -2.3391   -0.5298 C   0  0  0  0  0  0  0  0  0  0  0  0
    4.7318   -3.1057   -0.4759 O   0  0  0  0  0  0  0  0  0  0  0  0
    4.0496   -0.9297   -0.4937 O   0  0  0  0  0  0  0  0  0  0  0  0
    5.0371   -0.4134    0.4026 C   0  0  0  0  0  0  0  0  0  0  0  0
    5.2231   -1.1410    1.7471 C   0  0  0  0  0  0  0  0  0  0  0  0
    4.3882   -0.2529    2.6882 C   0  0  0  0  0  0  0  0  0  0  0  0
    3.3928    0.5207    1.8037 C   0  0  0  0  0  0  0  0  0  0  0  0
    4.5751    0.9615    0.9201 C   0  0  0  0  0  0  0  0  0  0  0  0
    5.3706    1.8240    1.9175 C   0  0  0  0  0  0  0  0  0  0  0  0
    5.2409    0.9361    3.1686 C   0  0  0  0  0  0  0  0  0  0  0  0
    6.7003    0.6845    3.5911 C   0  0  0  0  0  0  0  0  0  0  0  0
    7.5375    1.3739    2.8040 C   0  0  0  0  0  0  0  0  0  0  0  0
    6.8371    2.2685    1.7644 C   0  0  0  0  0  0  0  0  0  0  0  0
    2.1680   -3.4657    0.3138 H   0  0  0  0  0  0  0  0  0  0  0  0
    2.2408   -3.4987   -1.4638 H   0  0  0  0  0  0  0  0  0  0  0  0
    1.6704   -2.0366   -0.6231 H   0  0  0  0  0  0  0  0  0  0  0  0
    6.0028   -0.3115   -0.0925 H   0  0  0  0  0  0  0  0  0  0  0  0
    6.2487   -1.1964    2.1121 H   0  0  0  0  0  0  0  0  0  0  0  0
    4.7938   -2.1418    1.7010 H   0  0  0  0  0  0  0  0  0  0  0  0
    3.8725   -0.7020    3.5370 H   0  0  0  0  0  0  0  0  0  0  0  0
    2.9442    1.3689    2.3208 H   0  0  0  0  0  0  0  0  0  0  0  0
    2.6089   -0.0870    1.3517 H   0  0  0  0  0  0  0  0  0  0  0  0
    4.2723    1.5741    0.0710 H   0  0  0  0  0  0  0  0  0  0  0  0
    4.7332    2.7013    2.0282 H   0  0  0  0  0  0  0  0  0  0  0  0
    4.7253    1.4873    3.9551 H   0  0  0  0  0  0  0  0  0  0  0  0
    7.0955   -0.0256    4.3175 H   0  0  0  0  0  0  0  0  0  0  0  0
    8.5344    1.6318    3.1615 H   0  0  0  0  0  0  0  0  0  0  0  0
    7.3060    2.1432    0.7884 H   0  0  0  0  0  0  0  0  0  0  0  0
    6.9153    3.3071    2.0859 H   0  0  0  0  0  0  0  0  0  0  0  0
  1  2 1.00  0  0  0  0
  1 15 1.00  0  0  0  0
  1 16 1.00  0  0  0  0
  1 17 1.00  0  0  0  0
  2  3 2.00  0  0  0  0
  2  4 1.00  0  0  0  0
  4  5 1.00  0  0  0  0
  5  6 1.00  0  0  0  0
  5  9 1.00  0  0  0  0
  5 18 1.00  0  0  0  0
  6  7 1.00  0  0  0  0
  6 19 1.00  0  0  0  0
  6 20 1.00  0  0  0  0
  7  8 1.00  0  0  0  0
  7 11 1.00  0  0  0  0
  7 21 1.00  0  0  0  0
  8  9 1.00  0  0  0  0
  8 22 1.00  0  0  0  0
  8 23 1.00  0  0  0  0
  9 10 1.00  0  0  0  0
  9 24 1.00  0  0  0  0
 10 11 1.00  0  0  0  0
 10 14 1.00  0  0  0  0
 10 25 1.00  0  0  0  0
 11 12 1.00  0  0  0  0
 11 26 1.00  0  0  0  0
 12 13 2.00  0  0  0  0
 12 27 1.00  0  0  0  0
 13 14 1.00  0  0  0  0
 13 28 1.00  0  0  0  0
 14 29 1.00  0  0  0  0
 14 30 1.00  0  0  0  0
M  END

