Test
 OpenBabel07232516433D

 30 32  0     0  0  0  0  0  0999 V2000
    0.9749    1.2466    1.2669 C   0  0  0  0  0  0  0  0  0  0  0  0
    2.4775    1.0697    1.5542 C   0  0  0  0  0  0  0  0  0  0  0  0
    2.8368    0.5754    2.5869 O   0  0  0  0  0  0  0  0  0  0  0  0
    3.2325    2.1349    0.9708 O   0  0  0  0  0  0  0  0  0  0  0  0
    4.6097    1.9990    1.3308 C   0  0  0  0  0  0  0  0  0  0  0  0
    4.8300    2.5688    2.7444 C   0  0  0  0  0  0  0  0  0  0  0  0
    5.7061    3.7778    2.3671 C   0  0  0  0  0  0  0  0  0  0  0  0
    5.0260    4.3561    1.1123 C   0  0  0  0  0  0  0  0  0  0  0  0
    5.3206    3.0140    0.4165 C   0  0  0  0  0  0  0  0  0  0  0  0
    6.8310    2.8010    0.6284 C   0  0  0  0  0  0  0  0  0  0  0  0
    7.1495    3.3633    2.0261 C   0  0  0  0  0  0  0  0  0  0  0  0
    8.0761    4.5672    1.7742 C   0  0  0  0  0  0  0  0  0  0  0  0
    8.3714    4.6552    0.4701 C   0  0  0  0  0  0  0  0  0  0  0  0
    7.6689    3.5917   -0.3935 C   0  0  0  0  0  0  0  0  0  0  0  0
    0.4007    0.8731    2.1147 H   0  0  0  0  0  0  0  0  0  0  0  0
    0.7048    0.6877    0.3709 H   0  0  0  0  0  0  0  0  0  0  0  0
    0.7558    2.3036    1.1160 H   0  0  0  0  0  0  0  0  0  0  0  0
    5.0999    1.0288    1.2497 H   0  0  0  0  0  0  0  0  0  0  0  0
    5.4114    1.8699    3.3457 H   0  0  0  0  0  0  0  0  0  0  0  0
    3.9695    2.9128    3.3184 H   0  0  0  0  0  0  0  0  0  0  0  0
    5.7214    4.5323    3.1537 H   0  0  0  0  0  0  0  0  0  0  0  0
    5.5763    5.2112    0.7199 H   0  0  0  0  0  0  0  0  0  0  0  0
    4.0069    4.6600    1.3513 H   0  0  0  0  0  0  0  0  0  0  0  0
    5.0811    2.9064   -0.6414 H   0  0  0  0  0  0  0  0  0  0  0  0
    7.0943    1.7446    0.5760 H   0  0  0  0  0  0  0  0  0  0  0  0
    7.6798    2.6124    2.6118 H   0  0  0  0  0  0  0  0  0  0  0  0
    8.5022    5.2807    2.4796 H   0  0  0  0  0  0  0  0  0  0  0  0
    8.6642    5.6112    0.0359 H   0  0  0  0  0  0  0  0  0  0  0  0
    8.4435    2.9366   -0.7921 H   0  0  0  0  0  0  0  0  0  0  0  0
    7.1461    4.0781   -1.2170 H   0  0  0  0  0  0  0  0  0  0  0  0
  1  2 1.00  0  0  0  0
  1 15 1.00  0  0  0  0
  1 16 1.00  0  0  0  0
  1 17 1.00  0  0  0  0
  2  3 2.00  0  0  0  0
  2  4 1.00  0  0  0  0
  4  5 1.00  0  0  0  0
  5  6 1.00  0  0  0  0
  5  9 1.00  0  0  0  0
  5 18 1.00  0  0  0  0
  6  7 1.00  0  0  0  0
  6 19 1.00  0  0  0  0
  6 20 1.00  0  0  0  0
  7  8 1.00  0  0  0  0
  7 11 1.00  0  0  0  0
  7 21 1.00  0  0  0  0
  8  9 1.00  0  0  0  0
  8 22 1.00  0  0  0  0
  8 23 1.00  0  0  0  0
  9 10 1.00  0  0  0  0
  9 24 1.00  0  0  0  0
 10 11 1.00  0  0  0  0
 10 14 1.00  0  0  0  0
 10 25 1.00  0  0  0  0
 11 12 1.00  0  0  0  0
 11 26 1.00  0  0  0  0
 12 13 2.00  0  0  0  0
 12 27 1.00  0  0  0  0
 13 14 1.00  0  0  0  0
 13 28 1.00  0  0  0  0
 14 29 1.00  0  0  0  0
 14 30 1.00  0  0  0  0
M  END

