
 OpenBabel02082522583D

 29 30  0  0  1  0  0  0  0  0999 V2000
    0.8441    0.0161   -0.2838 C   0  0  0  0  0  0  0  0  0  0  0  0
    2.2861    0.1762    0.1048 C   0  0  2  0  0  0  0  0  0  0  0  0
    3.2113    0.8814   -0.8759 C   0  0  1  0  0  0  0  0  0  0  0  0
    4.4203    1.5875   -0.4010 C   0  0  0  0  0  0  0  0  0  0  0  0
    5.5732    0.9500   -0.7297 O   0  0  0  0  0  0  0  0  0  0  0  0
    6.7803    1.6606   -0.4123 C   0  0  0  0  0  0  0  0  0  0  0  0
    7.2170    1.3638    1.0097 C   0  0  0  0  0  0  0  0  0  0  0  0
    4.3349    2.6864    0.1329 O   0  0  0  0  0  0  0  0  0  0  0  0
    3.1920   -0.5479   -0.7530 O   0  0  0  0  0  0  0  0  0  0  0  0
    2.6080    0.1953    1.5858 C   0  0  0  0  0  0  0  0  0  0  0  0
    3.3764   -0.8192    2.1840 C   0  0  0  0  0  0  0  0  0  0  0  0
    3.7698   -0.7450    3.5220 C   0  0  0  0  0  0  0  0  0  0  0  0
    3.3820    0.3404    4.3010 C   0  0  0  0  0  0  0  0  0  0  0  0
    2.5829    1.3366    3.7483 C   0  0  0  0  0  0  0  0  0  0  0  0
    2.2002    1.2615    2.4067 C   0  0  0  0  0  0  0  0  0  0  0  0
    0.7213   -0.0429   -1.3715 H   0  0  0  0  0  0  0  0  0  0  0  0
    0.2550    0.8716    0.0648 H   0  0  0  0  0  0  0  0  0  0  0  0
    0.4200   -0.8948    0.1498 H   0  0  0  0  0  0  0  0  0  0  0  0
    2.7756    1.3074   -1.7701 H   0  0  0  0  0  0  0  0  0  0  0  0
    6.6616    2.7382   -0.5748 H   0  0  0  0  0  0  0  0  0  0  0  0
    7.5501    1.3193   -1.1122 H   0  0  0  0  0  0  0  0  0  0  0  0
    6.4678    1.7055    1.7314 H   0  0  0  0  0  0  0  0  0  0  0  0
    8.1666    1.8608    1.2339 H   0  0  0  0  0  0  0  0  0  0  0  0
    7.3392    0.2874    1.1586 H   0  0  0  0  0  0  0  0  0  0  0  0
    3.7023   -1.6681    1.5851 H   0  0  0  0  0  0  0  0  0  0  0  0
    4.3936   -1.5269    3.9468 H   0  0  0  0  0  0  0  0  0  0  0  0
    3.7074    0.4136    5.3350 H   0  0  0  0  0  0  0  0  0  0  0  0
    2.2742    2.1854    4.3528 H   0  0  0  0  0  0  0  0  0  0  0  0
    1.5988    2.0658    1.9876 H   0  0  0  0  0  0  0  0  0  0  0  0
  1 16  1  0  0  0  0
  1 17  1  0  0  0  0
  1 18  1  0  0  0  0
  2  1  1  6  0  0  0
  2  3  1  0  0  0  0
  2  9  1  0  0  0  0
  2 10  1  0  0  0  0
  3  4  1  0  0  0  0
  3  9  1  0  0  0  0
  3 19  1  6  0  0  0
  4  5  1  0  0  0  0
  4  8  2  0  0  0  0
  5  6  1  0  0  0  0
  6  7  1  0  0  0  0
  6 20  1  0  0  0  0
  6 21  1  0  0  0  0
  7 22  1  0  0  0  0
  7 23  1  0  0  0  0
  7 24  1  0  0  0  0
 10 11  2  0  0  0  0
 10 15  1  0  0  0  0
 11 12  1  0  0  0  0
 11 25  1  0  0  0  0
 12 13  2  0  0  0  0
 12 26  1  0  0  0  0
 13 14  1  0  0  0  0
 13 27  1  0  0  0  0
 14 15  2  0  0  0  0
 14 28  1  0  0  0  0
 15 29  1  0  0  0  0
M  END
$$$$
