Test
 OpenBabel07232516433D

 30 32  0     0  0  0  0  0  0999 V2000
    5.6184   -4.2156    0.8502 C   0  0  0  0  0  0  0  0  0  0  0  0
    4.9628   -2.8285    0.7169 C   0  0  0  0  0  0  0  0  0  0  0  0
    5.3588   -1.9112    1.3816 O   0  0  0  0  0  0  0  0  0  0  0  0
    3.5579   -3.0411    0.5558 O   0  0  0  0  0  0  0  0  0  0  0  0
    2.8547   -1.7975    0.6184 C   0  0  0  0  0  0  0  0  0  0  0  0
    2.9392   -0.9299   -0.6511 C   0  0  0  0  0  0  0  0  0  0  0  0
    1.4924   -0.9627   -1.1776 C   0  0  0  0  0  0  0  0  0  0  0  0
    0.6898   -0.8868    0.1345 C   0  0  0  0  0  0  0  0  0  0  0  0
    1.3609   -2.1695    0.6603 C   0  0  0  0  0  0  0  0  0  0  0  0
    1.0318   -3.2197   -0.4169 C   0  0  0  0  0  0  0  0  0  0  0  0
    1.1627   -2.3744   -1.6974 C   0  0  0  0  0  0  0  0  0  0  0  0
   -0.2049   -2.5482   -2.3836 C   0  0  0  0  0  0  0  0  0  0  0  0
   -1.0059   -3.3452   -1.6633 C   0  0  0  0  0  0  0  0  0  0  0  0
   -0.3739   -3.8453   -0.3511 C   0  0  0  0  0  0  0  0  0  0  0  0
    5.5084   -4.5733    1.8739 H   0  0  0  0  0  0  0  0  0  0  0  0
    6.6773   -4.1391    0.6037 H   0  0  0  0  0  0  0  0  0  0  0  0
    5.1353   -4.9117    0.1645 H   0  0  0  0  0  0  0  0  0  0  0  0
    3.1127   -1.1940    1.4886 H   0  0  0  0  0  0  0  0  0  0  0  0
    3.6035   -1.3875   -1.3843 H   0  0  0  0  0  0  0  0  0  0  0  0
    3.2368    0.1010   -0.4597 H   0  0  0  0  0  0  0  0  0  0  0  0
    1.1243   -0.2192   -1.8846 H   0  0  0  0  0  0  0  0  0  0  0  0
   -0.3932   -0.9518    0.0299 H   0  0  0  0  0  0  0  0  0  0  0  0
    0.9473   -0.0041    0.7199 H   0  0  0  0  0  0  0  0  0  0  0  0
    1.0887   -2.5570    1.6421 H   0  0  0  0  0  0  0  0  0  0  0  0
    1.7826   -4.0096   -0.3996 H   0  0  0  0  0  0  0  0  0  0  0  0
    1.9465   -2.7685   -2.3443 H   0  0  0  0  0  0  0  0  0  0  0  0
   -0.5110   -2.2230   -3.3780 H   0  0  0  0  0  0  0  0  0  0  0  0
   -2.0885   -3.2476   -1.7444 H   0  0  0  0  0  0  0  0  0  0  0  0
   -0.4116   -4.9336   -0.3034 H   0  0  0  0  0  0  0  0  0  0  0  0
   -0.9213   -3.4244    0.4923 H   0  0  0  0  0  0  0  0  0  0  0  0
  1  2 1.00  0  0  0  0
  1 15 1.00  0  0  0  0
  1 16 1.00  0  0  0  0
  1 17 1.00  0  0  0  0
  2  3 2.00  0  0  0  0
  2  4 1.00  0  0  0  0
  4  5 1.00  0  0  0  0
  5  6 1.00  0  0  0  0
  5  9 1.00  0  0  0  0
  5 18 1.00  0  0  0  0
  6  7 1.00  0  0  0  0
  6 19 1.00  0  0  0  0
  6 20 1.00  0  0  0  0
  7  8 1.00  0  0  0  0
  7 11 1.00  0  0  0  0
  7 21 1.00  0  0  0  0
  8  9 1.00  0  0  0  0
  8 22 1.00  0  0  0  0
  8 23 1.00  0  0  0  0
  9 10 1.00  0  0  0  0
  9 24 1.00  0  0  0  0
 10 11 1.00  0  0  0  0
 10 14 1.00  0  0  0  0
 10 25 1.00  0  0  0  0
 11 12 1.00  0  0  0  0
 11 26 1.00  0  0  0  0
 12 13 2.00  0  0  0  0
 12 27 1.00  0  0  0  0
 13 14 1.00  0  0  0  0
 13 28 1.00  0  0  0  0
 14 29 1.00  0  0  0  0
 14 30 1.00  0  0  0  0
M  END

