
 OpenBabel02082520303D

 29 30  0  0  1  0  0  0  0  0999 V2000
    2.9828    0.0101    1.4104 C   0  0  0  0  0  0  0  0  0  0  0  0
    2.3973    0.2456    0.0429 C   0  0  1  0  0  0  0  0  0  0  0  0
    3.2237    1.0558   -0.9390 C   0  0  2  0  0  0  0  0  0  0  0  0
    2.6162    1.8230   -2.0465 C   0  0  0  0  0  0  0  0  0  0  0  0
    2.0209    1.0498   -2.9954 O   0  0  0  0  0  0  0  0  0  0  0  0
    1.3804    1.7685   -4.0586 C   0  0  0  0  0  0  0  0  0  0  0  0
    0.0116    2.2582   -3.6193 C   0  0  0  0  0  0  0  0  0  0  0  0
    2.6929    3.0435   -2.0672 O   0  0  0  0  0  0  0  0  0  0  0  0
    3.1602   -0.3773   -1.0102 O   0  0  0  0  0  0  0  0  0  0  0  0
    0.8848    0.1509   -0.0537 C   0  0  0  0  0  0  0  0  0  0  0  0
    0.2498   -0.8615   -0.7932 C   0  0  0  0  0  0  0  0  0  0  0  0
   -1.1413   -0.9990   -0.8189 C   0  0  0  0  0  0  0  0  0  0  0  0
   -1.9376   -0.1227   -0.0879 C   0  0  0  0  0  0  0  0  0  0  0  0
   -1.3420    0.8967    0.6454 C   0  0  0  0  0  0  0  0  0  0  0  0
    0.0519    1.0366    0.6560 C   0  0  0  0  0  0  0  0  0  0  0  0
    4.0685   -0.1345    1.3690 H   0  0  0  0  0  0  0  0  0  0  0  0
    2.5455   -0.8768    1.8761 H   0  0  0  0  0  0  0  0  0  0  0  0
    2.7894    0.8726    2.0579 H   0  0  0  0  0  0  0  0  0  0  0  0
    4.1576    1.4771   -0.5858 H   0  0  0  0  0  0  0  0  0  0  0  0
    1.2709    1.0744   -4.8983 H   0  0  0  0  0  0  0  0  0  0  0  0
    2.0098    2.5962   -4.4061 H   0  0  0  0  0  0  0  0  0  0  0  0
   -0.6302    1.4121   -3.3532 H   0  0  0  0  0  0  0  0  0  0  0  0
   -0.4709    2.8275   -4.4188 H   0  0  0  0  0  0  0  0  0  0  0  0
    0.0812    2.8941   -2.7315 H   0  0  0  0  0  0  0  0  0  0  0  0
    0.8558   -1.5682   -1.3630 H   0  0  0  0  0  0  0  0  0  0  0  0
   -1.5971   -1.7968   -1.4010 H   0  0  0  0  0  0  0  0  0  0  0  0
   -3.0163   -0.2395   -0.0877 H   0  0  0  0  0  0  0  0  0  0  0  0
   -1.9581    1.5819    1.2246 H   0  0  0  0  0  0  0  0  0  0  0  0
    0.4922    1.8354    1.2462 H   0  0  0  0  0  0  0  0  0  0  0  0
  1 16  1  0  0  0  0
  1 17  1  0  0  0  0
  1 18  1  0  0  0  0
  2  3  1  0  0  0  0
  2  9  1  0  0  0  0
  2 10  1  0  0  0  0
  2  1  1  1  0  0  0
  3  9  1  0  0  0  0
  3  4  1  0  0  0  0
  3 19  1  1  0  0  0
  4  5  1  0  0  0  0
  4  8  2  0  0  0  0
  5  6  1  0  0  0  0
  6  7  1  0  0  0  0
  6 20  1  0  0  0  0
  6 21  1  0  0  0  0
  7 22  1  0  0  0  0
  7 23  1  0  0  0  0
  7 24  1  0  0  0  0
 10 11  2  0  0  0  0
 10 15  1  0  0  0  0
 11 12  1  0  0  0  0
 11 25  1  0  0  0  0
 12 13  2  0  0  0  0
 12 26  1  0  0  0  0
 13 14  1  0  0  0  0
 13 27  1  0  0  0  0
 14 15  2  0  0  0  0
 14 28  1  0  0  0  0
 15 29  1  0  0  0  0
M  END
$$$$
