Test
 OpenBabel07232516413D

 30 32  0     0  0  0  0  0  0999 V2000
    2.8202   -0.1605   -3.4992 C   0  0  0  0  0  0  0  0  0  0  0  0
    1.5254    0.5492   -3.0618 C   0  0  0  0  0  0  0  0  0  0  0  0
    1.0648    1.4271   -3.7380 O   0  0  0  0  0  0  0  0  0  0  0  0
    0.6584   -0.3949   -2.4280 O   0  0  0  0  0  0  0  0  0  0  0  0
   -0.5807    0.1772   -2.0013 C   0  0  0  0  0  0  0  0  0  0  0  0
   -1.6304    0.1868   -3.1280 C   0  0  0  0  0  0  0  0  0  0  0  0
   -2.5065   -1.0408   -2.8163 C   0  0  0  0  0  0  0  0  0  0  0  0
   -1.5328   -1.9697   -2.0675 C   0  0  0  0  0  0  0  0  0  0  0  0
   -1.1735   -0.8747   -1.0455 C   0  0  0  0  0  0  0  0  0  0  0  0
   -2.5479   -0.4551   -0.4919 C   0  0  0  0  0  0  0  0  0  0  0  0
   -3.4927   -0.8069   -1.6569 C   0  0  0  0  0  0  0  0  0  0  0  0
   -4.4557    0.3906   -1.7588 C   0  0  0  0  0  0  0  0  0  0  0  0
   -4.2339    1.2885   -0.7892 C   0  0  0  0  0  0  0  0  0  0  0  0
   -2.8542    1.0175   -0.1613 C   0  0  0  0  0  0  0  0  0  0  0  0
    3.6276    0.5683   -3.5710 H   0  0  0  0  0  0  0  0  0  0  0  0
    2.6671   -0.6291   -4.4713 H   0  0  0  0  0  0  0  0  0  0  0  0
    3.0825   -0.9206   -2.7632 H   0  0  0  0  0  0  0  0  0  0  0  0
   -0.5552    1.1522   -1.5145 H   0  0  0  0  0  0  0  0  0  0  0  0
   -2.2341    1.0921   -3.0651 H   0  0  0  0  0  0  0  0  0  0  0  0
   -1.1443    0.0600   -4.0953 H   0  0  0  0  0  0  0  0  0  0  0  0
   -3.0021   -1.5981   -3.6112 H   0  0  0  0  0  0  0  0  0  0  0  0
   -0.8042   -2.3744   -2.7700 H   0  0  0  0  0  0  0  0  0  0  0  0
   -2.0903   -2.7872   -1.6103 H   0  0  0  0  0  0  0  0  0  0  0  0
   -0.5714   -1.2972   -0.2410 H   0  0  0  0  0  0  0  0  0  0  0  0
   -2.7987   -1.0793    0.3657 H   0  0  0  0  0  0  0  0  0  0  0  0
   -4.0527   -1.7140   -1.4295 H   0  0  0  0  0  0  0  0  0  0  0  0
   -5.4633    0.2478   -2.1493 H   0  0  0  0  0  0  0  0  0  0  0  0
   -4.5891    2.3126   -0.9038 H   0  0  0  0  0  0  0  0  0  0  0  0
   -2.0957    1.6895   -0.5627 H   0  0  0  0  0  0  0  0  0  0  0  0
   -2.9171    1.1445    0.9195 H   0  0  0  0  0  0  0  0  0  0  0  0
  1  2 1.00  0  0  0  0
  1 15 1.00  0  0  0  0
  1 16 1.00  0  0  0  0
  1 17 1.00  0  0  0  0
  2  3 2.00  0  0  0  0
  2  4 1.00  0  0  0  0
  4  5 1.00  0  0  0  0
  5  6 1.00  0  0  0  0
  5  9 1.00  0  0  0  0
  5 18 1.00  0  0  0  0
  6  7 1.00  0  0  0  0
  6 19 1.00  0  0  0  0
  6 20 1.00  0  0  0  0
  7  8 1.00  0  0  0  0
  7 11 1.00  0  0  0  0
  7 21 1.00  0  0  0  0
  8  9 1.00  0  0  0  0
  8 22 1.00  0  0  0  0
  8 23 1.00  0  0  0  0
  9 10 1.00  0  0  0  0
  9 24 1.00  0  0  0  0
 10 11 1.00  0  0  0  0
 10 14 1.00  0  0  0  0
 10 25 1.00  0  0  0  0
 11 12 1.00  0  0  0  0
 11 26 1.00  0  0  0  0
 12 13 2.00  0  0  0  0
 12 27 1.00  0  0  0  0
 13 14 1.00  0  0  0  0
 13 28 1.00  0  0  0  0
 14 29 1.00  0  0  0  0
 14 30 1.00  0  0  0  0
M  END

