
 OpenBabel11302420343D

 27 27  0  0  1  0  0  0  0  0999 V2000
    1.8050    1.6210    0.2288 C   0  0  0  0  0  0  0  0  0  0  0  0
    0.5385    0.8259    0.0846 C   0  0  0  0  0  0  0  0  0  0  0  0
   -0.6239    1.4024   -0.2767 C   0  0  0  0  0  0  0  0  0  0  0  0
   -1.9360    0.6706   -0.3568 C   0  0  0  0  0  0  0  0  0  0  0  0
   -1.9290   -0.7225    0.3151 C   0  0  2  0  0  0  0  0  0  0  0  0
   -0.6134   -1.4425   -0.0273 C   0  0  0  0  0  0  0  0  0  0  0  0
    0.6206   -0.6451    0.4079 C   0  0  1  0  0  0  0  0  0  0  0  0
    1.7544   -1.2092   -0.2505 O   0  0  0  0  0  0  0  0  0  0  0  0
   -3.1896   -1.5183   -0.0343 C   0  0  0  0  0  0  0  0  0  0  0  0
   -3.2017   -2.7040   -0.6708 C   0  0  0  0  0  0  0  0  0  0  0  0
   -4.5122   -0.9317    0.3986 C   0  0  0  0  0  0  0  0  0  0  0  0
    1.6451    2.6865    0.0305 H   0  0  0  0  0  0  0  0  0  0  0  0
    2.5675    1.2665   -0.4726 H   0  0  0  0  0  0  0  0  0  0  0  0
    2.1964    1.5282    1.2478 H   0  0  0  0  0  0  0  0  0  0  0  0
   -0.6530    2.4647   -0.5108 H   0  0  0  0  0  0  0  0  0  0  0  0
   -2.2165    0.5858   -1.4154 H   0  0  0  0  0  0  0  0  0  0  0  0
   -2.6973    1.2996    0.1221 H   0  0  0  0  0  0  0  0  0  0  0  0
   -1.9416   -0.5774    1.4024 H   0  0  0  0  0  0  0  0  0  0  0  0
   -0.5602   -1.6306   -1.1098 H   0  0  0  0  0  0  0  0  0  0  0  0
   -0.5707   -2.4283    0.4498 H   0  0  0  0  0  0  0  0  0  0  0  0
    0.7722   -0.7626    1.4866 H   0  0  0  0  0  0  0  0  0  0  0  0
    1.6351   -1.0482   -1.2017 H   0  0  0  0  0  0  0  0  0  0  0  0
   -2.2993   -3.2043   -1.0047 H   0  0  0  0  0  0  0  0  0  0  0  0
   -4.1348   -3.2224   -0.8783 H   0  0  0  0  0  0  0  0  0  0  0  0
   -4.3829   -0.0241    0.9944 H   0  0  0  0  0  0  0  0  0  0  0  0
   -5.0655   -1.6460    1.0176 H   0  0  0  0  0  0  0  0  0  0  0  0
   -5.1197   -0.6763   -0.4762 H   0  0  0  0  0  0  0  0  0  0  0  0
  1  2  1  0  0  0  0
  1 12  1  0  0  0  0
  1 13  1  0  0  0  0
  1 14  1  0  0  0  0
  2  3  2  0  0  0  0
  2  7  1  0  0  0  0
  3  4  1  0  0  0  0
  3 15  1  0  0  0  0
  4  5  1  0  0  0  0
  4 16  1  0  0  0  0
  4 17  1  0  0  0  0
  5  6  1  0  0  0  0
  5  9  1  0  0  0  0
  5 18  1  1  0  0  0
  6  7  1  0  0  0  0
  6 19  1  0  0  0  0
  6 20  1  0  0  0  0
  7  8  1  0  0  0  0
  7 21  1  1  0  0  0
  8 22  1  0  0  0  0
  9 10  2  0  0  0  0
  9 11  1  0  0  0  0
 10 23  1  0  0  0  0
 10 24  1  0  0  0  0
 11 25  1  0  0  0  0
 11 26  1  0  0  0  0
 11 27  1  0  0  0  0
M  END
$$$$
