Test
 OpenBabel08162512113D

 27 27  0     0  0  0  0  0  0999 V2000
    0.8985   -1.6300    0.6766 O   0  0  0  0  0  0  0  0  0  0  0  0
    0.5425   -0.8010   -0.4328 C   0  0  0  0  0  0  0  0  0  0  0  0
   -0.2627    0.4116    0.0700 C   0  0  0  0  0  0  0  0  0  0  0  0
   -1.5854    0.5593   -0.0855 C   0  0  0  0  0  0  0  0  0  0  0  0
   -2.4091   -0.5098   -0.8273 C   0  0  0  0  0  0  0  0  0  0  0  0
   -1.7009   -1.8615   -1.0343 C   0  0  0  0  0  0  0  0  0  0  0  0
   -2.4793   -2.7441   -2.0276 C   0  0  0  0  0  0  0  0  0  0  0  0
   -1.9070   -3.6755   -2.8026 C   0  0  0  0  0  0  0  0  0  0  0  0
   -4.0024   -2.5395   -2.1267 C   0  0  0  0  0  0  0  0  0  0  0  0
   -0.2430   -1.6244   -1.4703 C   0  0  0  0  0  0  0  0  0  0  0  0
    0.5506    1.4969    0.7996 C   0  0  0  0  0  0  0  0  0  0  0  0
    1.7738   -1.3717    1.0054 H   0  0  0  0  0  0  0  0  0  0  0  0
    1.4485   -0.4373   -0.9177 H   0  0  0  0  0  0  0  0  0  0  0  0
   -2.0662    1.4737    0.2619 H   0  0  0  0  0  0  0  0  0  0  0  0
   -2.7031   -0.1035   -1.7951 H   0  0  0  0  0  0  0  0  0  0  0  0
   -3.2954   -0.6549   -0.2097 H   0  0  0  0  0  0  0  0  0  0  0  0
   -1.6808   -2.3444   -0.0573 H   0  0  0  0  0  0  0  0  0  0  0  0
   -0.8227   -3.7855   -2.8120 H   0  0  0  0  0  0  0  0  0  0  0  0
   -2.5200   -4.2594   -3.4892 H   0  0  0  0  0  0  0  0  0  0  0  0
   -4.3368   -1.8004   -1.3987 H   0  0  0  0  0  0  0  0  0  0  0  0
   -4.4783   -3.4975   -1.9170 H   0  0  0  0  0  0  0  0  0  0  0  0
   -4.2736   -2.2101   -3.1297 H   0  0  0  0  0  0  0  0  0  0  0  0
   -0.2339   -1.1063   -2.4292 H   0  0  0  0  0  0  0  0  0  0  0  0
    0.2519   -2.5900   -1.5741 H   0  0  0  0  0  0  0  0  0  0  0  0
   -0.1272    2.1898    1.2980 H   0  0  0  0  0  0  0  0  0  0  0  0
    1.1621    2.0406    0.0795 H   0  0  0  0  0  0  0  0  0  0  0  0
    1.1962    1.0231    1.5391 H   0  0  0  0  0  0  0  0  0  0  0  0
  1  2 1.00  0  0  0  0
  1 12 1.00  0  0  0  0
  2  3 1.00  0  0  0  0
  2 10 1.00  0  0  0  0
  2 13 1.00  0  0  0  0
  3  4 2.00  0  0  0  0
  3 11 1.00  0  0  0  0
  4  5 1.00  0  0  0  0
  4 14 1.00  0  0  0  0
  5  6 1.00  0  0  0  0
  5 15 1.00  0  0  0  0
  5 16 1.00  0  0  0  0
  6  7 1.00  0  0  0  0
  6 10 1.00  0  0  0  0
  6 17 1.00  0  0  0  0
  7  9 1.00  0  0  0  0
  8  7 2.00  0  0  0  0
  8 18 1.00  0  0  0  0
  8 19 1.00  0  0  0  0
  9 20 1.00  0  0  0  0
  9 21 1.00  0  0  0  0
  9 22 1.00  0  0  0  0
 10 23 1.00  0  0  0  0
 10 24 1.00  0  0  0  0
 11 25 1.00  0  0  0  0
 11 26 1.00  0  0  0  0
 11 27 1.00  0  0  0  0
M  END

