
 OpenBabel11022421463D

 43 44  0  0  1  0  0  0  0  0999 V2000
    5.1468    1.1812   -0.7862 C   0  0  0  0  0  0  0  0  0  0  0  0
    4.8223   -0.2830   -0.9669 C   0  0  0  0  0  0  0  0  0  0  0  0
    5.7345   -1.0736   -1.2235 O   0  0  0  0  0  0  0  0  0  0  0  0
    3.3398   -0.7365   -0.9382 C   0  0  2  0  0  0  0  0  0  0  0  0
    2.4824    0.2170   -0.0809 C   0  0  0  0  0  0  0  0  0  0  0  0
    3.2404   -2.2076   -0.3961 C   0  0  1  0  0  0  0  0  0  0  0  0
    3.7416   -2.2683    1.0598 C   0  0  0  0  0  0  0  0  0  0  0  0
    1.7988   -2.8510   -0.5722 C   0  0  1  0  0  0  0  0  0  0  0  0
    1.0663   -2.3182   -1.8137 C   0  0  0  0  0  0  0  0  0  0  0  0
    1.5739   -1.3865   -2.6391 C   0  0  0  0  0  0  0  0  0  0  0  0
    2.8833   -0.7148   -2.4121 C   0  0  0  0  0  0  0  0  0  0  0  0
   -0.3102   -2.8849   -2.0765 C   0  0  0  0  0  0  0  0  0  0  0  0
   -0.2507   -4.3961   -2.1698 C   0  0  0  0  0  0  0  0  0  0  0  0
    0.3424   -4.9769   -0.9005 C   0  0  0  0  0  0  0  0  0  0  0  0
    1.7646   -4.4381   -0.5519 C   0  0  0  0  0  0  0  0  0  0  0  0
    2.0589   -5.0112    0.8538 C   0  0  0  0  0  0  0  0  0  0  0  0
    2.7780   -5.0441   -1.5483 C   0  0  0  0  0  0  0  0  0  0  0  0
    6.2331    1.3073   -0.7258 H   0  0  0  0  0  0  0  0  0  0  0  0
    4.7263    1.5600    0.1470 H   0  0  0  0  0  0  0  0  0  0  0  0
    4.7708    1.7512   -1.6391 H   0  0  0  0  0  0  0  0  0  0  0  0
    1.4407   -0.1089   -0.0042 H   0  0  0  0  0  0  0  0  0  0  0  0
    2.4685    1.2300   -0.4973 H   0  0  0  0  0  0  0  0  0  0  0  0
    2.8761    0.2981    0.9394 H   0  0  0  0  0  0  0  0  0  0  0  0
    3.9479   -2.7924   -0.9937 H   0  0  0  0  0  0  0  0  0  0  0  0
    2.9955   -1.8875    1.7627 H   0  0  0  0  0  0  0  0  0  0  0  0
    4.6606   -1.6896    1.1991 H   0  0  0  0  0  0  0  0  0  0  0  0
    4.0082   -3.2787    1.3617 H   0  0  0  0  0  0  0  0  0  0  0  0
    1.1930   -2.5065    0.2810 H   0  0  0  0  0  0  0  0  0  0  0  0
    1.0145   -1.0751   -3.5159 H   0  0  0  0  0  0  0  0  0  0  0  0
    2.8092    0.3251   -2.7587 H   0  0  0  0  0  0  0  0  0  0  0  0
    3.6246   -1.1965   -3.0615 H   0  0  0  0  0  0  0  0  0  0  0  0
   -0.7410   -2.4844   -3.0021 H   0  0  0  0  0  0  0  0  0  0  0  0
   -0.9818   -2.5829   -1.2640 H   0  0  0  0  0  0  0  0  0  0  0  0
    0.3279   -4.7067   -3.0480 H   0  0  0  0  0  0  0  0  0  0  0  0
   -1.2667   -4.7945   -2.3117 H   0  0  0  0  0  0  0  0  0  0  0  0
    0.3691   -6.0711   -0.9940 H   0  0  0  0  0  0  0  0  0  0  0  0
   -0.3412   -4.7589   -0.0686 H   0  0  0  0  0  0  0  0  0  0  0  0
    1.4757   -4.4861    1.6191 H   0  0  0  0  0  0  0  0  0  0  0  0
    3.1139   -4.9665    1.1155 H   0  0  0  0  0  0  0  0  0  0  0  0
    1.7918   -6.0713    0.9092 H   0  0  0  0  0  0  0  0  0  0  0  0
    2.6253   -4.6683   -2.5651 H   0  0  0  0  0  0  0  0  0  0  0  0
    2.6954   -6.1358   -1.5796 H   0  0  0  0  0  0  0  0  0  0  0  0
    3.8123   -4.8259   -1.2648 H   0  0  0  0  0  0  0  0  0  0  0  0
  1  2  1  0  0  0  0
  1 18  1  0  0  0  0
  1 19  1  0  0  0  0
  1 20  1  0  0  0  0
  2  3  2  0  0  0  0
  4  6  1  0  0  0  0
  4 11  1  0  0  0  0
  4  5  1  0  0  0  0
  4  2  1  1  0  0  0
  5 21  1  0  0  0  0
  5 22  1  0  0  0  0
  5 23  1  0  0  0  0
  6  7  1  0  0  0  0
  6  8  1  0  0  0  0
  6 24  1  6  0  0  0
  7 25  1  0  0  0  0
  7 26  1  0  0  0  0
  7 27  1  0  0  0  0
  8  9  1  0  0  0  0
  8 15  1  0  0  0  0
  8 28  1  1  0  0  0
  9 10  2  0  0  0  0
  9 12  1  0  0  0  0
 10 11  1  0  0  0  0
 10 29  1  0  0  0  0
 11 30  1  0  0  0  0
 11 31  1  0  0  0  0
 12 13  1  0  0  0  0
 12 32  1  0  0  0  0
 12 33  1  0  0  0  0
 13 14  1  0  0  0  0
 13 34  1  0  0  0  0
 13 35  1  0  0  0  0
 14 15  1  0  0  0  0
 14 36  1  0  0  0  0
 14 37  1  0  0  0  0
 15 16  1  0  0  0  0
 15 17  1  0  0  0  0
 16 38  1  0  0  0  0
 16 39  1  0  0  0  0
 16 40  1  0  0  0  0
 17 41  1  0  0  0  0
 17 42  1  0  0  0  0
 17 43  1  0  0  0  0
M  END
$$$$
