
 OpenBabel01032513213D

 27 28  0  0  1  0  0  0  0  0999 V2000
    0.9819   -0.1006    0.0976 C   0  0  0  0  0  0  0  0  0  0  0  0
    2.5235   -0.0670    0.0835 C   0  0  0  0  0  0  0  0  0  0  0  0
    3.1778   -1.1690   -0.7956 C   0  0  3  0  0  0  0  0  0  0  0  0
    2.6841   -0.8130   -2.2208 C   0  0  0  0  0  0  0  0  0  0  0  0
    2.6766    0.7328   -2.2151 C   0  0  0  0  0  0  0  0  0  0  0  0
    3.1312    1.0752   -0.7762 C   0  0  3  0  0  0  0  0  0  0  0  0
    4.6049    0.6631   -0.7645 C   0  0  0  0  0  0  0  0  0  0  0  0
    5.5653    1.4197   -0.7945 O   0  0  0  0  0  0  0  0  0  0  0  0
    4.6942   -0.8498   -0.7484 C   0  0  0  0  0  0  0  0  0  0  0  0
    2.8635    2.4959   -0.3391 C   0  0  0  0  0  0  0  0  0  0  0  0
    2.9739   -0.0752    1.5582 C   0  0  0  0  0  0  0  0  0  0  0  0
    0.5208   -0.0758   -0.8921 H   0  0  0  0  0  0  0  0  0  0  0  0
    0.5834    0.7591    0.6484 H   0  0  0  0  0  0  0  0  0  0  0  0
    0.6233   -1.0096    0.5930 H   0  0  0  0  0  0  0  0  0  0  0  0
    2.9503   -2.1980   -0.5068 H   0  0  0  0  0  0  0  0  0  0  0  0
    1.6787   -1.2069   -2.4042 H   0  0  0  0  0  0  0  0  0  0  0  0
    3.3380   -1.2128   -3.0030 H   0  0  0  0  0  0  0  0  0  0  0  0
    1.6750    1.1164   -2.4368 H   0  0  0  0  0  0  0  0  0  0  0  0
    3.3615    1.1285   -2.9740 H   0  0  0  0  0  0  0  0  0  0  0  0
    5.1666   -1.1961    0.1728 H   0  0  0  0  0  0  0  0  0  0  0  0
    5.2322   -1.2211   -1.6237 H   0  0  0  0  0  0  0  0  0  0  0  0
    1.7917    2.7177   -0.3421 H   0  0  0  0  0  0  0  0  0  0  0  0
    3.3558    3.2117   -1.0059 H   0  0  0  0  0  0  0  0  0  0  0  0
    3.2453    2.6813    0.6701 H   0  0  0  0  0  0  0  0  0  0  0  0
    2.6078   -0.9757    2.0645 H   0  0  0  0  0  0  0  0  0  0  0  0
    2.5685    0.7922    2.0915 H   0  0  0  0  0  0  0  0  0  0  0  0
    4.0576   -0.0470    1.6962 H   0  0  0  0  0  0  0  0  0  0  0  0
  1  2  1  0  0  0  0
  1 12  1  0  0  0  0
  1 13  1  0  0  0  0
  1 14  1  0  0  0  0
  2  3  1  0  0  0  0
  2  6  1  0  0  0  0
  2 11  1  0  0  0  0
  3  4  1  0  0  0  0
  3  9  1  0  0  0  0
  3 15  1  0  0  0  0
  4  5  1  0  0  0  0
  4 16  1  0  0  0  0
  4 17  1  0  0  0  0
  5  6  1  0  0  0  0
  5 18  1  0  0  0  0
  5 19  1  0  0  0  0
  6  7  1  0  0  0  0
  6 10  1  0  0  0  0
  7  8  2  0  0  0  0
  7  9  1  0  0  0  0
  9 20  1  0  0  0  0
  9 21  1  0  0  0  0
 10 22  1  0  0  0  0
 10 23  1  0  0  0  0
 10 24  1  0  0  0  0
 11 25  1  0  0  0  0
 11 26  1  0  0  0  0
 11 27  1  0  0  0  0
M  END
$$$$
