Test
 OpenBabel07232516393D

 30 32  0     0  0  0  0  0  0999 V2000
    6.4636   -3.5032    0.9987 C   0  0  0  0  0  0  0  0  0  0  0  0
    5.5188   -2.3056    0.7875 C   0  0  0  0  0  0  0  0  0  0  0  0
    5.9713   -1.2106    0.5971 O   0  0  0  0  0  0  0  0  0  0  0  0
    4.3834   -2.7493    0.0399 O   0  0  0  0  0  0  0  0  0  0  0  0
    3.4484   -1.6805   -0.1279 C   0  0  0  0  0  0  0  0  0  0  0  0
    3.9160   -0.7201   -1.2372 C   0  0  0  0  0  0  0  0  0  0  0  0
    2.8156   -0.8540   -2.3063 C   0  0  0  0  0  0  0  0  0  0  0  0
    2.6514   -2.3840   -2.2438 C   0  0  0  0  0  0  0  0  0  0  0  0
    2.2495   -2.4140   -0.7574 C   0  0  0  0  0  0  0  0  0  0  0  0
    1.0014   -1.5294   -0.9341 C   0  0  0  0  0  0  0  0  0  0  0  0
    1.5553   -0.2759   -1.6363 C   0  0  0  0  0  0  0  0  0  0  0  0
    0.1667    0.2415   -2.0554 C   0  0  0  0  0  0  0  0  0  0  0  0
   -0.6541    0.0554   -1.0126 C   0  0  0  0  0  0  0  0  0  0  0  0
   -0.0419   -0.9131    0.0164 C   0  0  0  0  0  0  0  0  0  0  0  0
    6.2797   -3.9440    1.9785 H   0  0  0  0  0  0  0  0  0  0  0  0
    7.4977   -3.1630    0.9446 H   0  0  0  0  0  0  0  0  0  0  0  0
    6.2845   -4.2499    0.2251 H   0  0  0  0  0  0  0  0  0  0  0  0
    3.1096   -1.1019    0.7315 H   0  0  0  0  0  0  0  0  0  0  0  0
    4.8788   -1.0502   -1.6275 H   0  0  0  0  0  0  0  0  0  0  0  0
    3.9337    0.3015   -0.8578 H   0  0  0  0  0  0  0  0  0  0  0  0
    2.8613   -0.5202   -3.3429 H   0  0  0  0  0  0  0  0  0  0  0  0
    3.6003   -2.8633   -2.4844 H   0  0  0  0  0  0  0  0  0  0  0  0
    1.8781   -2.7510   -2.9187 H   0  0  0  0  0  0  0  0  0  0  0  0
    1.9424   -3.4261   -0.4938 H   0  0  0  0  0  0  0  0  0  0  0  0
    0.4941   -2.1269   -1.6915 H   0  0  0  0  0  0  0  0  0  0  0  0
    1.9388    0.3331   -0.8176 H   0  0  0  0  0  0  0  0  0  0  0  0
   -0.0664    0.9985   -2.8041 H   0  0  0  0  0  0  0  0  0  0  0  0
   -1.7341    0.0867   -1.1564 H   0  0  0  0  0  0  0  0  0  0  0  0
   -0.7534   -1.6745    0.3360 H   0  0  0  0  0  0  0  0  0  0  0  0
    0.4559   -0.4911    0.8894 H   0  0  0  0  0  0  0  0  0  0  0  0
  1  2 1.00  0  0  0  0
  1 15 1.00  0  0  0  0
  1 16 1.00  0  0  0  0
  1 17 1.00  0  0  0  0
  2  3 2.00  0  0  0  0
  2  4 1.00  0  0  0  0
  4  5 1.00  0  0  0  0
  5  6 1.00  0  0  0  0
  5  9 1.00  0  0  0  0
  5 18 1.00  0  0  0  0
  6  7 1.00  0  0  0  0
  6 19 1.00  0  0  0  0
  6 20 1.00  0  0  0  0
  7  8 1.00  0  0  0  0
  7 11 1.00  0  0  0  0
  7 21 1.00  0  0  0  0
  8  9 1.00  0  0  0  0
  8 22 1.00  0  0  0  0
  8 23 1.00  0  0  0  0
  9 10 1.00  0  0  0  0
  9 24 1.00  0  0  0  0
 10 11 1.00  0  0  0  0
 10 14 1.00  0  0  0  0
 10 25 1.00  0  0  0  0
 11 12 1.00  0  0  0  0
 11 26 1.00  0  0  0  0
 12 13 2.00  0  0  0  0
 12 27 1.00  0  0  0  0
 13 14 1.00  0  0  0  0
 13 28 1.00  0  0  0  0
 14 29 1.00  0  0  0  0
 14 30 1.00  0  0  0  0
M  END

