Test
 OpenBabel07232516383D

 30 32  0     0  0  0  0  0  0999 V2000
    0.9169   -1.0835    0.1995 C   0  0  0  0  0  0  0  0  0  0  0  0
    2.4406   -1.2156    0.3791 C   0  0  0  0  0  0  0  0  0  0  0  0
    2.9482   -2.3023    0.4177 O   0  0  0  0  0  0  0  0  0  0  0  0
    2.9222   -0.1705    1.2281 O   0  0  0  0  0  0  0  0  0  0  0  0
    4.3501   -0.1053    1.2696 C   0  0  0  0  0  0  0  0  0  0  0  0
    4.8856   -1.1925    2.2198 C   0  0  0  0  0  0  0  0  0  0  0  0
    5.4102   -0.2920    3.3535 C   0  0  0  0  0  0  0  0  0  0  0  0
    6.0497    0.8427    2.5318 C   0  0  0  0  0  0  0  0  0  0  0  0
    4.7064    1.2536    1.9005 C   0  0  0  0  0  0  0  0  0  0  0  0
    3.7945    1.4922    3.1184 C   0  0  0  0  0  0  0  0  0  0  0  0
    4.2546    0.3989    4.1010 C   0  0  0  0  0  0  0  0  0  0  0  0
    4.6192    1.2032    5.3626 C   0  0  0  0  0  0  0  0  0  0  0  0
    4.4818    2.5290    5.2243 C   0  0  0  0  0  0  0  0  0  0  0  0
    4.0058    2.8583    3.7973 C   0  0  0  0  0  0  0  0  0  0  0  0
    0.4077   -1.5771    1.0273 H   0  0  0  0  0  0  0  0  0  0  0  0
    0.6204   -1.5497   -0.7402 H   0  0  0  0  0  0  0  0  0  0  0  0
    0.6449   -0.0281    0.1831 H   0  0  0  0  0  0  0  0  0  0  0  0
    4.8406   -0.1958    0.3005 H   0  0  0  0  0  0  0  0  0  0  0  0
    5.7035   -1.7862    1.8116 H   0  0  0  0  0  0  0  0  0  0  0  0
    4.1104   -1.8552    2.6047 H   0  0  0  0  0  0  0  0  0  0  0  0
    6.1528   -0.7119    4.0320 H   0  0  0  0  0  0  0  0  0  0  0  0
    6.8067    0.5100    1.8216 H   0  0  0  0  0  0  0  0  0  0  0  0
    6.4867    1.5724    3.2135 H   0  0  0  0  0  0  0  0  0  0  0  0
    4.7259    2.1469    1.2763 H   0  0  0  0  0  0  0  0  0  0  0  0
    2.7491    1.3881    2.8279 H   0  0  0  0  0  0  0  0  0  0  0  0
    3.4244   -0.2715    4.3234 H   0  0  0  0  0  0  0  0  0  0  0  0
    4.9545    0.7861    6.3121 H   0  0  0  0  0  0  0  0  0  0  0  0
    5.1632    3.2045    5.7414 H   0  0  0  0  0  0  0  0  0  0  0  0
    4.7618    3.4400    3.2699 H   0  0  0  0  0  0  0  0  0  0  0  0
    3.0767    3.4264    3.8434 H   0  0  0  0  0  0  0  0  0  0  0  0
  1  2 1.00  0  0  0  0
  1 15 1.00  0  0  0  0
  1 16 1.00  0  0  0  0
  1 17 1.00  0  0  0  0
  2  3 2.00  0  0  0  0
  2  4 1.00  0  0  0  0
  4  5 1.00  0  0  0  0
  5  6 1.00  0  0  0  0
  5  9 1.00  0  0  0  0
  5 18 1.00  0  0  0  0
  6  7 1.00  0  0  0  0
  6 19 1.00  0  0  0  0
  6 20 1.00  0  0  0  0
  7  8 1.00  0  0  0  0
  7 11 1.00  0  0  0  0
  7 21 1.00  0  0  0  0
  8  9 1.00  0  0  0  0
  8 22 1.00  0  0  0  0
  8 23 1.00  0  0  0  0
  9 10 1.00  0  0  0  0
  9 24 1.00  0  0  0  0
 10 11 1.00  0  0  0  0
 10 14 1.00  0  0  0  0
 10 25 1.00  0  0  0  0
 11 12 1.00  0  0  0  0
 11 26 1.00  0  0  0  0
 12 13 2.00  0  0  0  0
 12 27 1.00  0  0  0  0
 13 14 1.00  0  0  0  0
 13 28 1.00  0  0  0  0
 14 29 1.00  0  0  0  0
 14 30 1.00  0  0  0  0
M  END

