
 OpenBabel10062408403D

 39 39  0  0  1  0  0  0  0  0999 V2000
    0.9447   -0.0668    0.0519 C   0  0  0  0  0  0  0  0  0  0  0  0
    2.4338   -0.0611    0.0240 C   0  0  0  0  0  0  0  0  0  0  0  0
    3.2170   -1.1507   -0.0506 C   0  0  0  0  0  0  0  0  0  0  0  0
    4.6678   -0.8050   -0.0191 C   0  0  0  0  0  0  0  0  0  0  0  0
    4.6623    0.7047   -0.3141 C   0  0  1  0  0  0  0  0  0  0  0  0
    3.2506    1.2149    0.1331 C   0  0  0  0  0  0  0  0  0  0  0  0
    3.2133    1.7407    1.5805 C   0  0  0  0  0  0  0  0  0  0  0  0
    2.7626    2.3178   -0.8179 C   0  0  0  0  0  0  0  0  0  0  0  0
    5.8384    1.4169    0.3077 C   0  0  0  0  0  0  0  0  0  0  0  0
    6.7525    2.0955   -0.3927 C   0  0  0  0  0  0  0  0  0  0  0  0
    6.6665    2.1272   -1.4802 H   0  0  0  0  0  0  0  0  0  0  0  0
    7.9039    2.8649    0.2328 C   0  0  1  0  0  0  0  0  0  0  0  0
    9.2417    2.3078   -0.2622 C   0  0  0  0  0  0  0  0  0  0  0  0
    7.7974    4.3899   -0.0369 C   0  0  1  0  0  0  0  0  0  0  0  0
    7.8127    4.7630   -1.5156 C   0  0  0  0  0  0  0  0  0  0  0  0
    6.5945    4.9120    0.5401 O   0  0  0  0  0  0  0  0  0  0  0  0
    0.5461   -1.0855   -0.0006 H   0  0  0  0  0  0  0  0  0  0  0  0
    0.5410    0.4901   -0.7991 H   0  0  0  0  0  0  0  0  0  0  0  0
    0.5729    0.3881    0.9752 H   0  0  0  0  0  0  0  0  0  0  0  0
    2.8546   -2.1675   -0.0981 H   0  0  0  0  0  0  0  0  0  0  0  0
    5.2202   -1.3483   -0.7938 H   0  0  0  0  0  0  0  0  0  0  0  0
    5.0973   -1.0532    0.9573 H   0  0  0  0  0  0  0  0  0  0  0  0
    4.7333    0.8089   -1.4093 H   0  0  0  0  0  0  0  0  0  0  0  0
    3.5944    0.9994    2.2925 H   0  0  0  0  0  0  0  0  0  0  0  0
    2.1936    1.9977    1.8863 H   0  0  0  0  0  0  0  0  0  0  0  0
    3.8153    2.6509    1.6893 H   0  0  0  0  0  0  0  0  0  0  0  0
    2.7069    1.9610   -1.8528 H   0  0  0  0  0  0  0  0  0  0  0  0
    3.4374    3.1811   -0.7982 H   0  0  0  0  0  0  0  0  0  0  0  0
    1.7641    2.6733   -0.5389 H   0  0  0  0  0  0  0  0  0  0  0  0
    5.9178    1.3762    1.3945 H   0  0  0  0  0  0  0  0  0  0  0  0
    7.8635    2.7151    1.3216 H   0  0  0  0  0  0  0  0  0  0  0  0
    9.3417    2.4030   -1.3483 H   0  0  0  0  0  0  0  0  0  0  0  0
    9.3465    1.2460   -0.0146 H   0  0  0  0  0  0  0  0  0  0  0  0
   10.0807    2.8365    0.2019 H   0  0  0  0  0  0  0  0  0  0  0  0
    8.6267    4.8994    0.4677 H   0  0  0  0  0  0  0  0  0  0  0  0
    6.9660    4.3138   -2.0422 H   0  0  0  0  0  0  0  0  0  0  0  0
    8.7367    4.4532   -2.0092 H   0  0  0  0  0  0  0  0  0  0  0  0
    7.7079    5.8455   -1.6320 H   0  0  0  0  0  0  0  0  0  0  0  0
    5.8463    4.4784    0.0904 H   0  0  0  0  0  0  0  0  0  0  0  0
  1  2  1  0  0  0  0
  1 17  1  0  0  0  0
  1 18  1  0  0  0  0
  1 19  1  0  0  0  0
  2  3  2  0  0  0  0
  2  6  1  0  0  0  0
  3  4  1  0  0  0  0
  3 20  1  0  0  0  0
  4  5  1  0  0  0  0
  4 21  1  0  0  0  0
  4 22  1  0  0  0  0
  5  6  1  0  0  0  0
  5  9  1  0  0  0  0
  5 23  1  6  0  0  0
  6  7  1  0  0  0  0
  6  8  1  0  0  0  0
  7 24  1  0  0  0  0
  7 25  1  0  0  0  0
  7 26  1  0  0  0  0
  8 27  1  0  0  0  0
  8 28  1  0  0  0  0
  8 29  1  0  0  0  0
  9 10  2  0  0  0  0
  9 30  1  0  0  0  0
 10 11  1  0  0  0  0
 10 12  1  0  0  0  0
 12 13  1  0  0  0  0
 12 14  1  0  0  0  0
 12 31  1  1  0  0  0
 13 32  1  0  0  0  0
 13 33  1  0  0  0  0
 13 34  1  0  0  0  0
 14 15  1  0  0  0  0
 14 16  1  0  0  0  0
 14 35  1  1  0  0  0
 15 36  1  0  0  0  0
 15 37  1  0  0  0  0
 15 38  1  0  0  0  0
 16 39  1  0  0  0  0
M  END
$$$$
