
 OpenBabel09032416463D

 38 38  0  0  1  0  0  0  0  0999 V2000
    0.9704   -1.3526    2.0858 O   0  0  0  0  0  0  0  0  0  0  0  0
    2.1736   -1.1656    2.2058 C   0  0  0  0  0  0  0  0  0  0  0  0
    2.8422   -1.2230    3.3831 O   0  0  0  0  0  0  0  0  0  0  0  0
    2.0182   -1.5175    4.5152 C   0  0  0  0  0  0  0  0  0  0  0  0
    3.0571   -0.8198    1.0171 C   0  0  0  0  0  0  0  0  0  0  0  0
    4.5799   -0.6838    1.1868 C   0  0  2  0  0  0  0  0  0  0  0  0
    5.3014   -1.9496    1.7086 C   0  0  2  0  0  0  0  0  0  0  0  0
    6.4142   -1.3558    2.5523 C   0  0  0  0  0  0  0  0  0  0  0  0
    7.2749   -2.0161    3.1225 O   0  0  0  0  0  0  0  0  0  0  0  0
    6.3756    0.1440    2.6153 C   0  0  0  0  0  0  0  0  0  0  0  0
    4.9909    0.4817    2.0939 C   0  0  0  0  0  0  0  0  0  0  0  0
    5.8271   -2.8114    0.5470 C   0  0  0  0  0  0  0  0  0  0  0  0
    6.5842   -4.0886    0.9359 C   0  0  0  0  0  0  0  0  0  0  0  0
    5.7706   -5.0777    1.7713 C   0  0  0  0  0  0  0  0  0  0  0  0
    6.6191   -6.2926    2.1543 C   0  0  0  0  0  0  0  0  0  0  0  0
    5.8322   -7.2906    2.9882 C   0  0  0  0  0  0  0  0  0  0  0  0
    2.6337   -1.4335    5.4158 H   0  0  0  0  0  0  0  0  0  0  0  0
    1.6352   -2.5408    4.4500 H   0  0  0  0  0  0  0  0  0  0  0  0
    1.1943   -0.8004    4.5962 H   0  0  0  0  0  0  0  0  0  0  0  0
    2.6741    0.1305    0.6218 H   0  0  0  0  0  0  0  0  0  0  0  0
    2.8677   -1.5934    0.2640 H   0  0  0  0  0  0  0  0  0  0  0  0
    4.9769   -0.4508    0.1883 H   0  0  0  0  0  0  0  0  0  0  0  0
    4.6527   -2.5319    2.3666 H   0  0  0  0  0  0  0  0  0  0  0  0
    7.1611    0.5491    1.9746 H   0  0  0  0  0  0  0  0  0  0  0  0
    6.5055    0.4869    3.6449 H   0  0  0  0  0  0  0  0  0  0  0  0
    5.0087    1.4250    1.5350 H   0  0  0  0  0  0  0  0  0  0  0  0
    4.3043    0.6307    2.9300 H   0  0  0  0  0  0  0  0  0  0  0  0
    4.9865   -3.0894   -0.1005 H   0  0  0  0  0  0  0  0  0  0  0  0
    6.5079   -2.2092   -0.0694 H   0  0  0  0  0  0  0  0  0  0  0  0
    7.5089   -3.8295    1.4624 H   0  0  0  0  0  0  0  0  0  0  0  0
    6.9011   -4.5880    0.0106 H   0  0  0  0  0  0  0  0  0  0  0  0
    4.8914   -5.4022    1.2018 H   0  0  0  0  0  0  0  0  0  0  0  0
    5.4087   -4.5984    2.6868 H   0  0  0  0  0  0  0  0  0  0  0  0
    7.4953   -5.9644    2.7262 H   0  0  0  0  0  0  0  0  0  0  0  0
    6.9904   -6.7907    1.2511 H   0  0  0  0  0  0  0  0  0  0  0  0
    5.4651   -6.8292    3.9105 H   0  0  0  0  0  0  0  0  0  0  0  0
    6.4686   -8.1377    3.2634 H   0  0  0  0  0  0  0  0  0  0  0  0
    4.9737   -7.6775    2.4304 H   0  0  0  0  0  0  0  0  0  0  0  0
  1  2  2  0  0  0  0
  2  3  1  0  0  0  0
  2  5  1  0  0  0  0
  3  4  1  0  0  0  0
  4 17  1  0  0  0  0
  4 18  1  0  0  0  0
  4 19  1  0  0  0  0
  5  6  1  0  0  0  0
  5 20  1  0  0  0  0
  5 21  1  0  0  0  0
  6  7  1  0  0  0  0
  6 11  1  0  0  0  0
  6 22  1  6  0  0  0
  7  8  1  0  0  0  0
  7 12  1  0  0  0  0
  7 23  1  1  0  0  0
  8  9  2  0  0  0  0
  8 10  1  0  0  0  0
 10 11  1  0  0  0  0
 10 24  1  0  0  0  0
 10 25  1  0  0  0  0
 11 26  1  0  0  0  0
 11 27  1  0  0  0  0
 12 13  1  0  0  0  0
 12 28  1  0  0  0  0
 12 29  1  0  0  0  0
 13 14  1  0  0  0  0
 13 30  1  0  0  0  0
 13 31  1  0  0  0  0
 14 15  1  0  0  0  0
 14 32  1  0  0  0  0
 14 33  1  0  0  0  0
 15 16  1  0  0  0  0
 15 34  1  0  0  0  0
 15 35  1  0  0  0  0
 16 36  1  0  0  0  0
 16 37  1  0  0  0  0
 16 38  1  0  0  0  0
M  END
$$$$
