
 OpenBabel09172407213D

 27 28  0  0  1  0  0  0  0  0999 V2000
    0.9058    0.0229   -0.0185 O   0  0  0  0  0  0  0  0  0  0  0  0
    2.0171    0.3346   -0.4257 C   0  0  0  0  0  0  0  0  0  0  0  0
    2.8652    1.4869    0.1086 C   0  0  0  0  0  0  0  0  0  0  0  0
    2.1768    2.8501    0.0926 C   0  0  0  0  0  0  0  0  0  0  0  0
    3.2544    1.1219    1.5445 C   0  0  0  0  0  0  0  0  0  0  0  0
    4.0049    1.4294   -0.9667 C   0  0  2  0  0  0  0  0  0  0  0  0
    3.2823    0.9064   -2.2394 C   0  0  0  0  0  0  0  0  0  0  0  0
    2.7794   -0.3601   -1.5478 C   0  0  3  0  0  0  0  0  0  0  0  0
    1.9718   -1.3458   -2.3468 C   0  0  0  0  0  0  0  0  0  0  0  0
    4.0754   -0.9649   -0.9632 C   0  0  0  0  0  0  0  0  0  0  0  0
    4.9691    0.2618   -0.7100 C   0  0  0  0  0  0  0  0  0  0  0  0
    2.1449    3.2902   -0.9093 H   0  0  0  0  0  0  0  0  0  0  0  0
    2.7248    3.5567    0.7290 H   0  0  0  0  0  0  0  0  0  0  0  0
    1.1490    2.7924    0.4642 H   0  0  0  0  0  0  0  0  0  0  0  0
    3.4694    0.0526    1.6603 H   0  0  0  0  0  0  0  0  0  0  0  0
    2.4232    1.3278    2.2303 H   0  0  0  0  0  0  0  0  0  0  0  0
    4.1244    1.6897    1.8827 H   0  0  0  0  0  0  0  0  0  0  0  0
    4.5201    2.3839   -1.1125 H   0  0  0  0  0  0  0  0  0  0  0  0
    3.9655    0.7109   -3.0706 H   0  0  0  0  0  0  0  0  0  0  0  0
    2.4800    1.5748   -2.5797 H   0  0  0  0  0  0  0  0  0  0  0  0
    1.0016   -0.9429   -2.6554 H   0  0  0  0  0  0  0  0  0  0  0  0
    1.7689   -2.2463   -1.7506 H   0  0  0  0  0  0  0  0  0  0  0  0
    2.5058   -1.6671   -3.2508 H   0  0  0  0  0  0  0  0  0  0  0  0
    4.5732   -1.6444   -1.6681 H   0  0  0  0  0  0  0  0  0  0  0  0
    3.8852   -1.5146   -0.0339 H   0  0  0  0  0  0  0  0  0  0  0  0
    5.7850    0.2874   -1.4442 H   0  0  0  0  0  0  0  0  0  0  0  0
    5.4207    0.2681    0.2818 H   0  0  0  0  0  0  0  0  0  0  0  0
  1  2  2  0  0  0  0
  2  3  1  0  0  0  0
  2  8  1  0  0  0  0
  3  6  1  0  0  0  0
  3  4  1  0  0  0  0
  3  5  1  0  0  0  0
  4 12  1  0  0  0  0
  4 13  1  0  0  0  0
  4 14  1  0  0  0  0
  5 15  1  0  0  0  0
  5 16  1  0  0  0  0
  5 17  1  0  0  0  0
  6  7  1  0  0  0  0
  6 11  1  0  0  0  0
  6 18  1  6  0  0  0
  7  8  1  0  0  0  0
  7 19  1  0  0  0  0
  7 20  1  0  0  0  0
  8 10  1  0  0  0  0
  8  9  1  0  0  0  0
  9 21  1  0  0  0  0
  9 22  1  0  0  0  0
  9 23  1  0  0  0  0
 10 11  1  0  0  0  0
 10 24  1  0  0  0  0
 10 25  1  0  0  0  0
 11 26  1  0  0  0  0
 11 27  1  0  0  0  0
M  END
$$$$
