
 OpenBabel10132522003D

 36 37  0  0  1  0  0  0  0  0999 V2000
    0.9756    0.0084   -0.0582 C   0  0  0  0  0  0  0  0  0  0  0  0
    2.5258    0.0998   -0.0357 C   0  0  0  0  0  0  0  0  0  0  0  0
    2.8919    1.6159   -0.0238 C   0  0  0  0  0  0  0  0  0  0  0  0
    3.8424    2.1603    1.0343 C   0  0  0  0  0  0  0  0  0  0  0  0
    4.3138    1.2201    2.0753 C   0  0  0  0  0  0  0  0  0  0  0  0
    3.9635   -0.0686    2.1695 C   0  0  0  0  0  0  0  0  0  0  0  0
    3.0266   -0.7581    1.2011 C   0  0  2  0  0  0  0  0  0  0  0  0
    3.6096   -2.1370    0.7914 C   0  0  0  0  0  0  0  0  0  0  0  0
    4.1112   -2.9828    1.9644 C   0  0  0  0  0  0  0  0  0  0  0  0
    5.1169   -2.2190    2.8327 C   0  0  1  0  0  0  0  0  0  0  0  0
    4.4805   -0.9091    3.3253 C   0  0  0  0  0  0  0  0  0  0  0  0
    5.5698   -3.0794    4.0122 C   0  0  0  0  0  0  0  0  0  0  0  0
    6.2977   -1.9388    2.0685 O   0  0  0  0  0  0  0  0  0  0  0  0
    2.9977   -0.4600   -1.4042 C   0  0  0  0  0  0  0  0  0  0  0  0
    0.5449    0.4529    0.8476 H   0  0  0  0  0  0  0  0  0  0  0  0
    0.6373   -1.0323   -0.1154 H   0  0  0  0  0  0  0  0  0  0  0  0
    0.5546    0.5419   -0.9187 H   0  0  0  0  0  0  0  0  0  0  0  0
    1.9746    2.2204    0.0247 H   0  0  0  0  0  0  0  0  0  0  0  0
    3.3222    1.8965   -0.9946 H   0  0  0  0  0  0  0  0  0  0  0  0
    3.3536    3.0051    1.5385 H   0  0  0  0  0  0  0  0  0  0  0  0
    4.7246    2.5839    0.5379 H   0  0  0  0  0  0  0  0  0  0  0  0
    4.9755    1.6522    2.8234 H   0  0  0  0  0  0  0  0  0  0  0  0
    2.1411   -0.9872    1.8141 H   0  0  0  0  0  0  0  0  0  0  0  0
    4.4453   -2.0065    0.0954 H   0  0  0  0  0  0  0  0  0  0  0  0
    2.8398   -2.7178    0.2684 H   0  0  0  0  0  0  0  0  0  0  0  0
    4.5782   -3.8890    1.5573 H   0  0  0  0  0  0  0  0  0  0  0  0
    3.2534   -3.3002    2.5708 H   0  0  0  0  0  0  0  0  0  0  0  0
    5.2192   -0.3431    3.9079 H   0  0  0  0  0  0  0  0  0  0  0  0
    3.6407   -1.1265    3.9963 H   0  0  0  0  0  0  0  0  0  0  0  0
    4.7330   -3.3556    4.6612 H   0  0  0  0  0  0  0  0  0  0  0  0
    6.3174   -2.5496    4.6139 H   0  0  0  0  0  0  0  0  0  0  0  0
    6.0541   -3.9972    3.6586 H   0  0  0  0  0  0  0  0  0  0  0  0
    6.0987   -1.1951    1.4720 H   0  0  0  0  0  0  0  0  0  0  0  0
    2.6041    0.1399   -2.2341 H   0  0  0  0  0  0  0  0  0  0  0  0
    2.6450   -1.4816   -1.5784 H   0  0  0  0  0  0  0  0  0  0  0  0
    4.0903   -0.4452   -1.4834 H   0  0  0  0  0  0  0  0  0  0  0  0
  1  2  1  0  0  0  0
  1 15  1  0  0  0  0
  1 16  1  0  0  0  0
  1 17  1  0  0  0  0
  2  3  1  0  0  0  0
  2  7  1  0  0  0  0
  2 14  1  0  0  0  0
  3  4  1  0  0  0  0
  3 18  1  0  0  0  0
  3 19  1  0  0  0  0
  4  5  1  0  0  0  0
  4 20  1  0  0  0  0
  4 21  1  0  0  0  0
  5  6  2  0  0  0  0
  5 22  1  0  0  0  0
  6  7  1  0  0  0  0
  6 11  1  0  0  0  0
  7  8  1  0  0  0  0
  7 23  1  1  0  0  0
  8  9  1  0  0  0  0
  8 24  1  0  0  0  0
  8 25  1  0  0  0  0
  9 10  1  0  0  0  0
  9 26  1  0  0  0  0
  9 27  1  0  0  0  0
 10 11  1  0  0  0  0
 10 12  1  0  0  0  0
 10 13  1  6  0  0  0
 11 28  1  0  0  0  0
 11 29  1  0  0  0  0
 12 30  1  0  0  0  0
 12 31  1  0  0  0  0
 12 32  1  0  0  0  0
 13 33  1  0  0  0  0
 14 34  1  0  0  0  0
 14 35  1  0  0  0  0
 14 36  1  0  0  0  0
M  END
$$$$
