
 OpenBabel10292419173D

 31 31  0  0  1  0  0  0  0  0999 V2000
    2.9652    0.3979    1.5313 C   0  0  0  0  0  0  0  0  0  0  0  0
    2.4536    0.0326    0.1378 C   0  0  1  0  0  0  0  0  0  0  0  0
    2.9488    1.0330   -0.9112 C   0  0  0  0  0  0  0  0  0  0  0  0
    2.5427    0.6469   -2.3373 C   0  0  0  0  0  0  0  0  0  0  0  0
    2.9643   -0.7941   -2.7069 C   0  0  1  0  0  0  0  0  0  0  0  0
    2.4550   -1.7890   -1.6367 C   0  0  1  0  0  0  0  0  0  0  0  0
    2.8924   -1.3888   -0.2284 C   0  0  0  0  0  0  0  0  0  0  0  0
    1.0336   -1.9199   -1.6846 O   0  0  0  0  0  0  0  0  0  0  0  0
    2.5123   -1.1933   -4.1465 C   0  0  0  0  0  0  0  0  0  0  0  0
    2.9384   -2.6258   -4.5020 C   0  0  0  0  0  0  0  0  0  0  0  0
    3.0731   -0.2529   -5.2209 C   0  0  0  0  0  0  0  0  0  0  0  0
    2.6160    1.3924    1.8260 H   0  0  0  0  0  0  0  0  0  0  0  0
    4.0602    0.3963    1.5679 H   0  0  0  0  0  0  0  0  0  0  0  0
    2.6027   -0.3191    2.2759 H   0  0  0  0  0  0  0  0  0  0  0  0
    1.3572    0.0718    0.1692 H   0  0  0  0  0  0  0  0  0  0  0  0
    4.0427    1.1086   -0.8635 H   0  0  0  0  0  0  0  0  0  0  0  0
    2.5554    2.0317   -0.6840 H   0  0  0  0  0  0  0  0  0  0  0  0
    3.0110    1.3664   -3.0179 H   0  0  0  0  0  0  0  0  0  0  0  0
    1.4588    0.7666   -2.4535 H   0  0  0  0  0  0  0  0  0  0  0  0
    4.0631   -0.8235   -2.6826 H   0  0  0  0  0  0  0  0  0  0  0  0
    2.8648   -2.7847   -1.8255 H   0  0  0  0  0  0  0  0  0  0  0  0
    3.9857   -1.4666   -0.1594 H   0  0  0  0  0  0  0  0  0  0  0  0
    2.4692   -2.0927    0.4976 H   0  0  0  0  0  0  0  0  0  0  0  0
    0.6335   -1.0419   -1.5602 H   0  0  0  0  0  0  0  0  0  0  0  0
    1.4173   -1.1443   -4.2038 H   0  0  0  0  0  0  0  0  0  0  0  0
    4.0226   -2.7493   -4.4041 H   0  0  0  0  0  0  0  0  0  0  0  0
    2.6623   -2.8724   -5.5328 H   0  0  0  0  0  0  0  0  0  0  0  0
    2.4494   -3.3663   -3.8627 H   0  0  0  0  0  0  0  0  0  0  0  0
    4.1675   -0.2180   -5.1846 H   0  0  0  0  0  0  0  0  0  0  0  0
    2.6901    0.7647   -5.1088 H   0  0  0  0  0  0  0  0  0  0  0  0
    2.7818   -0.5915   -6.2219 H   0  0  0  0  0  0  0  0  0  0  0  0
  1 12  1  0  0  0  0
  1 13  1  0  0  0  0
  1 14  1  0  0  0  0
  2  3  1  0  0  0  0
  2  7  1  0  0  0  0
  2  1  1  0  0  0  0
  2 15  1  1  0  0  0
  3  4  1  0  0  0  0
  3 16  1  0  0  0  0
  3 17  1  0  0  0  0
  4  5  1  0  0  0  0
  4 18  1  0  0  0  0
  4 19  1  0  0  0  0
  5  6  1  0  0  0  0
  5  9  1  0  0  0  0
  5 20  1  1  0  0  0
  6  7  1  0  0  0  0
  6  8  1  0  0  0  0
  6 21  1  6  0  0  0
  7 22  1  0  0  0  0
  7 23  1  0  0  0  0
  8 24  1  0  0  0  0
  9 10  1  0  0  0  0
  9 11  1  0  0  0  0
  9 25  1  0  0  0  0
 10 26  1  0  0  0  0
 10 27  1  0  0  0  0
 10 28  1  0  0  0  0
 11 29  1  0  0  0  0
 11 30  1  0  0  0  0
 11 31  1  0  0  0  0
M  END
$$$$
