
 OpenBabel10062408433D

 39 39  0  0  1  0  0  0  0  0999 V2000
    0.8598    0.2615    0.0588 C   0  0  0  0  0  0  0  0  0  0  0  0
    2.3464    0.1399    0.0209 C   0  0  0  0  0  0  0  0  0  0  0  0
    3.0274   -1.0124   -0.0076 C   0  0  0  0  0  0  0  0  0  0  0  0
    4.5059   -0.7994    0.0211 C   0  0  0  0  0  0  0  0  0  0  0  0
    4.6636    0.6995   -0.3236 C   0  0  2  0  0  0  0  0  0  0  0  0
    3.2797    1.3393    0.0833 C   0  0  0  0  0  0  0  0  0  0  0  0
    3.3586    1.8519    1.5372 C   0  0  0  0  0  0  0  0  0  0  0  0
    2.8225    2.4979   -0.8140 C   0  0  0  0  0  0  0  0  0  0  0  0
    5.0768    0.8199   -1.7817 C   0  0  0  0  0  0  0  0  0  0  0  0
    6.3305    0.8806   -2.2711 C   0  0  0  0  0  0  0  0  0  0  0  0
    6.4273    0.9239   -3.3548 H   0  0  0  0  0  0  0  0  0  0  0  0
    7.6423    0.8438   -1.5015 C   0  0  1  0  0  0  0  0  0  0  0  0
    8.4494   -0.3914   -1.9201 C   0  0  0  0  0  0  0  0  0  0  0  0
    8.4788    2.1388   -1.6729 C   0  0  1  0  0  0  0  0  0  0  0  0
    8.8821    2.4697   -3.1058 C   0  0  0  0  0  0  0  0  0  0  0  0
    7.7778    3.2567   -1.1231 O   0  0  0  0  0  0  0  0  0  0  0  0
    0.3788   -0.7220    0.0488 H   0  0  0  0  0  0  0  0  0  0  0  0
    0.4922    0.8158   -0.8104 H   0  0  0  0  0  0  0  0  0  0  0  0
    0.5353    0.7783    0.9666 H   0  0  0  0  0  0  0  0  0  0  0  0
    2.5779   -1.9965   -0.0130 H   0  0  0  0  0  0  0  0  0  0  0  0
    5.0093   -1.4576   -0.6938 H   0  0  0  0  0  0  0  0  0  0  0  0
    4.8931   -1.0179    1.0219 H   0  0  0  0  0  0  0  0  0  0  0  0
    5.4554    1.1379    0.2958 H   0  0  0  0  0  0  0  0  0  0  0  0
    3.7053    1.0742    2.2277 H   0  0  0  0  0  0  0  0  0  0  0  0
    2.3821    2.1978    1.8957 H   0  0  0  0  0  0  0  0  0  0  0  0
    4.0552    2.6945    1.6133 H   0  0  0  0  0  0  0  0  0  0  0  0
    2.5892    2.1690   -1.8321 H   0  0  0  0  0  0  0  0  0  0  0  0
    3.5869    3.2800   -0.8707 H   0  0  0  0  0  0  0  0  0  0  0  0
    1.9098    2.9629   -0.4203 H   0  0  0  0  0  0  0  0  0  0  0  0
    4.2645    0.7938   -2.5074 H   0  0  0  0  0  0  0  0  0  0  0  0
    7.4344    0.7445   -0.4299 H   0  0  0  0  0  0  0  0  0  0  0  0
    8.5016   -0.5007   -3.0090 H   0  0  0  0  0  0  0  0  0  0  0  0
    7.9940   -1.3031   -1.5178 H   0  0  0  0  0  0  0  0  0  0  0  0
    9.4753   -0.3410   -1.5384 H   0  0  0  0  0  0  0  0  0  0  0  0
    9.3956    2.0388   -1.0791 H   0  0  0  0  0  0  0  0  0  0  0  0
    8.0092    2.6447   -3.7426 H   0  0  0  0  0  0  0  0  0  0  0  0
    9.4904    1.6767   -3.5488 H   0  0  0  0  0  0  0  0  0  0  0  0
    9.4645    3.3977   -3.1265 H   0  0  0  0  0  0  0  0  0  0  0  0
    6.8962    3.2781   -1.5374 H   0  0  0  0  0  0  0  0  0  0  0  0
  1  2  1  0  0  0  0
  1 17  1  0  0  0  0
  1 18  1  0  0  0  0
  1 19  1  0  0  0  0
  2  3  2  0  0  0  0
  2  6  1  0  0  0  0
  3  4  1  0  0  0  0
  3 20  1  0  0  0  0
  4  5  1  0  0  0  0
  4 21  1  0  0  0  0
  4 22  1  0  0  0  0
  5  6  1  0  0  0  0
  5  9  1  0  0  0  0
  5 23  1  1  0  0  0
  6  7  1  0  0  0  0
  6  8  1  0  0  0  0
  7 24  1  0  0  0  0
  7 25  1  0  0  0  0
  7 26  1  0  0  0  0
  8 27  1  0  0  0  0
  8 28  1  0  0  0  0
  8 29  1  0  0  0  0
  9 10  2  0  0  0  0
  9 30  1  0  0  0  0
 10 11  1  0  0  0  0
 10 12  1  0  0  0  0
 12 13  1  0  0  0  0
 12 14  1  0  0  0  0
 12 31  1  1  0  0  0
 13 32  1  0  0  0  0
 13 33  1  0  0  0  0
 13 34  1  0  0  0  0
 14 15  1  0  0  0  0
 14 16  1  0  0  0  0
 14 35  1  1  0  0  0
 15 36  1  0  0  0  0
 15 37  1  0  0  0  0
 15 38  1  0  0  0  0
 16 39  1  0  0  0  0
M  END
$$$$
