
 OpenBabel01032523133D

 38 38  0  0  1  0  0  0  0  0999 V2000
    5.1071    1.4870   -2.5574 C   0  0  0  0  0  0  0  0  0  0  0  0
    4.5472    1.3230   -1.2531 O   0  0  0  0  0  0  0  0  0  0  0  0
    5.3685    0.6555   -0.3988 C   0  0  0  0  0  0  0  0  0  0  0  0
    6.4805    0.2318   -0.6849 O   0  0  0  0  0  0  0  0  0  0  0  0
    4.7488    0.5707    0.9796 C   0  0  1  0  0  0  0  0  0  0  0  0
    5.1981   -0.7087    1.6978 C   0  0  0  0  0  0  0  0  0  0  0  0
    5.7288   -0.3284    3.0647 C   0  0  0  0  0  0  0  0  0  0  0  0
    5.8533    1.1627    3.0151 C   0  0  0  0  0  0  0  0  0  0  0  0
    6.4217    1.7989    3.8927 O   0  0  0  0  0  0  0  0  0  0  0  0
    5.2174    1.7880    1.7949 C   0  0  2  0  0  0  0  0  0  0  0  0
    4.0469    2.7336    2.0980 C   0  0  0  0  0  0  0  0  0  0  0  0
    4.4409    3.9534    2.9327 C   0  0  0  0  0  0  0  0  0  0  0  0
    3.2489    4.8779    3.1812 C   0  0  0  0  0  0  0  0  0  0  0  0
    3.6785    6.0730    4.0313 C   0  0  0  0  0  0  0  0  0  0  0  0
    2.5128    7.0183    4.3016 C   0  0  0  0  0  0  0  0  0  0  0  0
    2.9598    8.2009    5.1447 C   0  0  0  0  0  0  0  0  0  0  0  0
    4.4036    2.0632   -3.1624 H   0  0  0  0  0  0  0  0  0  0  0  0
    5.2581    0.5114   -3.0307 H   0  0  0  0  0  0  0  0  0  0  0  0
    6.0512    2.0398   -2.5031 H   0  0  0  0  0  0  0  0  0  0  0  0
    3.6571    0.5378    0.8670 H   0  0  0  0  0  0  0  0  0  0  0  0
    5.9637   -1.2647    1.1451 H   0  0  0  0  0  0  0  0  0  0  0  0
    4.3558   -1.4025    1.8065 H   0  0  0  0  0  0  0  0  0  0  0  0
    6.7088   -0.7800    3.2470 H   0  0  0  0  0  0  0  0  0  0  0  0
    5.0326   -0.6080    3.8597 H   0  0  0  0  0  0  0  0  0  0  0  0
    6.0057    2.3399    1.2686 H   0  0  0  0  0  0  0  0  0  0  0  0
    3.6349    3.0887    1.1435 H   0  0  0  0  0  0  0  0  0  0  0  0
    3.2405    2.1933    2.6093 H   0  0  0  0  0  0  0  0  0  0  0  0
    5.2379    4.5090    2.4245 H   0  0  0  0  0  0  0  0  0  0  0  0
    4.8308    3.6353    3.9046 H   0  0  0  0  0  0  0  0  0  0  0  0
    2.4523    4.3242    3.6934 H   0  0  0  0  0  0  0  0  0  0  0  0
    2.8381    5.2276    2.2266 H   0  0  0  0  0  0  0  0  0  0  0  0
    4.4814    6.6166    3.5183 H   0  0  0  0  0  0  0  0  0  0  0  0
    4.0902    5.7169    4.9840 H   0  0  0  0  0  0  0  0  0  0  0  0
    1.7108    6.4828    4.8225 H   0  0  0  0  0  0  0  0  0  0  0  0
    2.1006    7.3828    3.3536 H   0  0  0  0  0  0  0  0  0  0  0  0
    3.3514    7.8658    6.1106 H   0  0  0  0  0  0  0  0  0  0  0  0
    2.1182    8.8741    5.3319 H   0  0  0  0  0  0  0  0  0  0  0  0
    3.7453    8.7685    4.6353 H   0  0  0  0  0  0  0  0  0  0  0  0
  1  2  1  0  0  0  0
  1 17  1  0  0  0  0
  1 18  1  0  0  0  0
  1 19  1  0  0  0  0
  2  3  1  0  0  0  0
  3  4  2  0  0  0  0
  5  6  1  0  0  0  0
  5 10  1  0  0  0  0
  5  3  1  0  0  0  0
  5 20  1  6  0  0  0
  6  7  1  0  0  0  0
  6 21  1  0  0  0  0
  6 22  1  0  0  0  0
  7  8  1  0  0  0  0
  7 23  1  0  0  0  0
  7 24  1  0  0  0  0
  8  9  2  0  0  0  0
  8 10  1  0  0  0  0
 10 11  1  0  0  0  0
 10 25  1  6  0  0  0
 11 12  1  0  0  0  0
 11 26  1  0  0  0  0
 11 27  1  0  0  0  0
 12 13  1  0  0  0  0
 12 28  1  0  0  0  0
 12 29  1  0  0  0  0
 13 14  1  0  0  0  0
 13 30  1  0  0  0  0
 13 31  1  0  0  0  0
 14 15  1  0  0  0  0
 14 32  1  0  0  0  0
 14 33  1  0  0  0  0
 15 16  1  0  0  0  0
 15 34  1  0  0  0  0
 15 35  1  0  0  0  0
 16 36  1  0  0  0  0
 16 37  1  0  0  0  0
 16 38  1  0  0  0  0
M  END
$$$$
