
 OpenBabel08282415343D

 31 31  0  0  1  0  0  0  0  0999 V2000
   -2.6160   -1.1787   -0.1256 C   0  0  0  0  0  0  0  0  0  0  0  0
   -1.3863   -0.3935    0.3287 C   0  0  2  0  0  0  0  0  0  0  0  0
   -1.4034    1.0217   -0.2456 C   0  0  0  0  0  0  0  0  0  0  0  0
   -0.1635    1.8163    0.1599 C   0  0  0  0  0  0  0  0  0  0  0  0
    1.1687    1.1185   -0.2046 C   0  0  2  0  0  0  0  0  0  0  0  0
    1.1511   -0.3401    0.3198 C   0  0  1  0  0  0  0  0  0  0  0  0
   -0.1069   -1.1077   -0.0952 C   0  0  0  0  0  0  0  0  0  0  0  0
    2.2600   -1.0895   -0.1734 O   0  0  0  0  0  0  0  0  0  0  0  0
    2.3876    1.9557    0.3185 C   0  0  0  0  0  0  0  0  0  0  0  0
    3.7530    1.3349   -0.0011 C   0  0  0  0  0  0  0  0  0  0  0  0
    2.3889    3.3878   -0.2406 C   0  0  0  0  0  0  0  0  0  0  0  0
   -3.5357   -0.6833    0.2006 H   0  0  0  0  0  0  0  0  0  0  0  0
   -2.6096   -2.1882    0.2989 H   0  0  0  0  0  0  0  0  0  0  0  0
   -2.6493   -1.2714   -1.2163 H   0  0  0  0  0  0  0  0  0  0  0  0
   -1.4092   -0.3310    1.4249 H   0  0  0  0  0  0  0  0  0  0  0  0
   -2.2980    1.5533    0.1001 H   0  0  0  0  0  0  0  0  0  0  0  0
   -1.4626    0.9836   -1.3416 H   0  0  0  0  0  0  0  0  0  0  0  0
   -0.1953    1.9984    1.2421 H   0  0  0  0  0  0  0  0  0  0  0  0
   -0.2291    2.7924   -0.3307 H   0  0  0  0  0  0  0  0  0  0  0  0
    1.2465    1.0813   -1.3009 H   0  0  0  0  0  0  0  0  0  0  0  0
    1.2250   -0.3347    1.4147 H   0  0  0  0  0  0  0  0  0  0  0  0
   -0.0734   -2.1161    0.3360 H   0  0  0  0  0  0  0  0  0  0  0  0
   -0.0995   -1.2559   -1.1840 H   0  0  0  0  0  0  0  0  0  0  0  0
    2.2461   -1.0385   -1.1450 H   0  0  0  0  0  0  0  0  0  0  0  0
    2.3095    2.0298    1.4114 H   0  0  0  0  0  0  0  0  0  0  0  0
    3.8448    1.1057   -1.0677 H   0  0  0  0  0  0  0  0  0  0  0  0
    3.9260    0.4229    0.5756 H   0  0  0  0  0  0  0  0  0  0  0  0
    4.5673    2.0184    0.2655 H   0  0  0  0  0  0  0  0  0  0  0  0
    2.3942    3.3833   -1.3354 H   0  0  0  0  0  0  0  0  0  0  0  0
    3.2744    3.9380    0.0983 H   0  0  0  0  0  0  0  0  0  0  0  0
    1.5220    3.9601    0.1004 H   0  0  0  0  0  0  0  0  0  0  0  0
  1  2  1  0  0  0  0
  1 12  1  0  0  0  0
  1 13  1  0  0  0  0
  1 14  1  0  0  0  0
  2  3  1  0  0  0  0
  2  7  1  0  0  0  0
  2 15  1  1  0  0  0
  3  4  1  0  0  0  0
  3 16  1  0  0  0  0
  3 17  1  0  0  0  0
  4  5  1  0  0  0  0
  4 18  1  0  0  0  0
  4 19  1  0  0  0  0
  5  6  1  0  0  0  0
  5  9  1  0  0  0  0
  5 20  1  6  0  0  0
  6  7  1  0  0  0  0
  6  8  1  0  0  0  0
  6 21  1  1  0  0  0
  7 22  1  0  0  0  0
  7 23  1  0  0  0  0
  8 24  1  0  0  0  0
  9 10  1  0  0  0  0
  9 11  1  0  0  0  0
  9 25  1  0  0  0  0
 10 26  1  0  0  0  0
 10 27  1  0  0  0  0
 10 28  1  0  0  0  0
 11 29  1  0  0  0  0
 11 30  1  0  0  0  0
 11 31  1  0  0  0  0
M  END
$$$$
