Test
 OpenBabel07242500343D

 26 27  0     0  0  0  0  0  0999 V2000
    1.0551    0.1715   -0.5041 C   0  0  0  0  0  0  0  0  0  0  0  0
    2.2158    0.0918    0.1607 C   0  0  0  0  0  0  0  0  0  0  0  0
    2.7262   -1.2736    0.6576 C   0  0  0  0  0  0  0  0  0  0  0  0
    4.0869   -1.1190    1.3621 C   0  0  0  0  0  0  0  0  0  0  0  0
    4.2782    0.3118    1.8985 C   0  0  0  0  0  0  0  0  0  0  0  0
    4.2657    1.2955    0.7137 C   0  0  0  0  0  0  0  0  0  0  0  0
    2.7441    1.3085    0.9431 C   0  0  0  0  0  0  0  0  0  0  0  0
    3.0681    1.0995    2.4341 C   0  0  0  0  0  0  0  0  0  0  0  0
    3.5371    2.3000    3.2769 C   0  0  0  0  0  0  0  0  0  0  0  0
    1.8668    0.5316    3.2124 C   0  0  0  0  0  0  0  0  0  0  0  0
    0.5645   -0.7371   -0.8530 H   0  0  0  0  0  0  0  0  0  0  0  0
    0.6347    1.1463   -0.7514 H   0  0  0  0  0  0  0  0  0  0  0  0
    2.8369   -1.9329   -0.2033 H   0  0  0  0  0  0  0  0  0  0  0  0
    2.0028   -1.7013    1.3517 H   0  0  0  0  0  0  0  0  0  0  0  0
    4.8759   -1.3405    0.6433 H   0  0  0  0  0  0  0  0  0  0  0  0
    4.1389   -1.8272    2.1890 H   0  0  0  0  0  0  0  0  0  0  0  0
    5.1459    0.5064    2.5290 H   0  0  0  0  0  0  0  0  0  0  0  0
    4.4742    1.0728   -0.3328 H   0  0  0  0  0  0  0  0  0  0  0  0
    4.6805    2.2711    0.9670 H   0  0  0  0  0  0  0  0  0  0  0  0
    2.3582    2.3167    0.7930 H   0  0  0  0  0  0  0  0  0  0  0  0
    2.7033    2.9845    3.4328 H   0  0  0  0  0  0  0  0  0  0  0  0
    4.3398    2.8179    2.7520 H   0  0  0  0  0  0  0  0  0  0  0  0
    3.9029    1.9435    4.2398 H   0  0  0  0  0  0  0  0  0  0  0  0
    1.4169   -0.2809    2.6417 H   0  0  0  0  0  0  0  0  0  0  0  0
    1.1259    1.3128    3.3822 H   0  0  0  0  0  0  0  0  0  0  0  0
    2.2193    0.1506    4.1709 H   0  0  0  0  0  0  0  0  0  0  0  0
  1  2 2.00  0  0  0  0
  1 11 1.00  0  0  0  0
  1 12 1.00  0  0  0  0
  2  3 1.00  0  0  0  0
  2  7 1.00  0  0  0  0
  3  4 1.00  0  0  0  0
  3 13 1.00  0  0  0  0
  3 14 1.00  0  0  0  0
  4  5 1.00  0  0  0  0
  4 15 1.00  0  0  0  0
  4 16 1.00  0  0  0  0
  5  6 1.00  0  0  0  0
  5 17 1.00  0  0  0  0
  6  7 1.00  0  0  0  0
  6 18 1.00  0  0  0  0
  6 19 1.00  0  0  0  0
  7 20 1.00  0  0  0  0
  8  5 1.00  0  0  0  0
  8  7 1.00  0  0  0  0
  8  9 1.00  0  0  0  0
  8 10 1.00  0  0  0  0
  9 21 1.00  0  0  0  0
  9 22 1.00  0  0  0  0
  9 23 1.00  0  0  0  0
 10 24 1.00  0  0  0  0
 10 25 1.00  0  0  0  0
 10 26 1.00  0  0  0  0
M  END

