
 OpenBabel10062408403D

 39 39  0  0  1  0  0  0  0  0999 V2000
    6.5101    9.1419    4.9260 C   0  0  0  0  0  0  0  0  0  0  0  0
    6.7239    7.9137    4.1084 C   0  0  0  0  0  0  0  0  0  0  0  0
    6.9140    6.6796    4.5960 C   0  0  0  0  0  0  0  0  0  0  0  0
    7.1516    5.6770    3.5166 C   0  0  0  0  0  0  0  0  0  0  0  0
    6.6762    6.4169    2.2523 C   0  0  1  0  0  0  0  0  0  0  0  0
    6.8193    7.9410    2.5907 C   0  0  0  0  0  0  0  0  0  0  0  0
    8.1714    8.5461    2.1718 C   0  0  0  0  0  0  0  0  0  0  0  0
    5.6813    8.7355    1.9342 C   0  0  0  0  0  0  0  0  0  0  0  0
    7.4069    5.9335    1.0251 C   0  0  0  0  0  0  0  0  0  0  0  0
    6.8270    5.4199   -0.0695 C   0  0  0  0  0  0  0  0  0  0  0  0
    5.7425    5.3345   -0.1258 H   0  0  0  0  0  0  0  0  0  0  0  0
    7.6245    4.8942   -1.2484 C   0  0  2  0  0  0  0  0  0  0  0  0
    7.2793    3.4197   -1.4632 C   0  0  0  0  0  0  0  0  0  0  0  0
    7.4349    5.7176   -2.5462 C   0  0  2  0  0  0  0  0  0  0  0  0
    7.8388    7.1823   -2.3960 C   0  0  0  0  0  0  0  0  0  0  0  0
    6.0928    5.6410   -3.0264 O   0  0  0  0  0  0  0  0  0  0  0  0
    6.5397    8.9191    5.9977 H   0  0  0  0  0  0  0  0  0  0  0  0
    5.5351    9.5874    4.7068 H   0  0  0  0  0  0  0  0  0  0  0  0
    7.2876    9.8838    4.7216 H   0  0  0  0  0  0  0  0  0  0  0  0
    6.9329    6.4250    5.6472 H   0  0  0  0  0  0  0  0  0  0  0  0
    6.5624    4.7688    3.6809 H   0  0  0  0  0  0  0  0  0  0  0  0
    8.2124    5.4052    3.4834 H   0  0  0  0  0  0  0  0  0  0  0  0
    5.6046    6.1871    2.1344 H   0  0  0  0  0  0  0  0  0  0  0  0
    9.0150    7.9867    2.5913 H   0  0  0  0  0  0  0  0  0  0  0  0
    8.2653    9.5841    2.5113 H   0  0  0  0  0  0  0  0  0  0  0  0
    8.2832    8.5572    1.0812 H   0  0  0  0  0  0  0  0  0  0  0  0
    4.6993    8.3912    2.2783 H   0  0  0  0  0  0  0  0  0  0  0  0
    5.7089    8.6309    0.8438 H   0  0  0  0  0  0  0  0  0  0  0  0
    5.7540    9.8041    2.1658 H   0  0  0  0  0  0  0  0  0  0  0  0
    8.4957    5.9942    1.0632 H   0  0  0  0  0  0  0  0  0  0  0  0
    8.6939    4.9391   -0.9972 H   0  0  0  0  0  0  0  0  0  0  0  0
    6.2128    3.2727   -1.6679 H   0  0  0  0  0  0  0  0  0  0  0  0
    7.5326    2.8298   -0.5742 H   0  0  0  0  0  0  0  0  0  0  0  0
    7.8468    3.0072   -2.3038 H   0  0  0  0  0  0  0  0  0  0  0  0
    8.0653    5.2732   -3.3250 H   0  0  0  0  0  0  0  0  0  0  0  0
    7.1901    7.7111   -1.6898 H   0  0  0  0  0  0  0  0  0  0  0  0
    7.7370    7.7012   -3.3555 H   0  0  0  0  0  0  0  0  0  0  0  0
    8.8757    7.2748   -2.0590 H   0  0  0  0  0  0  0  0  0  0  0  0
    5.5598    6.2771   -2.5195 H   0  0  0  0  0  0  0  0  0  0  0  0
  1  2  1  0  0  0  0
  1 17  1  0  0  0  0
  1 18  1  0  0  0  0
  1 19  1  0  0  0  0
  2  3  2  0  0  0  0
  2  6  1  0  0  0  0
  3  4  1  0  0  0  0
  3 20  1  0  0  0  0
  4  5  1  0  0  0  0
  4 21  1  0  0  0  0
  4 22  1  0  0  0  0
  5  6  1  0  0  0  0
  5  9  1  0  0  0  0
  5 23  1  6  0  0  0
  6  7  1  0  0  0  0
  6  8  1  0  0  0  0
  7 24  1  0  0  0  0
  7 25  1  0  0  0  0
  7 26  1  0  0  0  0
  8 27  1  0  0  0  0
  8 28  1  0  0  0  0
  8 29  1  0  0  0  0
  9 10  2  0  0  0  0
  9 30  1  0  0  0  0
 10 11  1  0  0  0  0
 12 13  1  0  0  0  0
 12 10  1  0  0  0  0
 12 31  1  6  0  0  0
 13 32  1  0  0  0  0
 13 33  1  0  0  0  0
 13 34  1  0  0  0  0
 14 16  1  0  0  0  0
 14 15  1  0  0  0  0
 14 12  1  0  0  0  0
 14 35  1  6  0  0  0
 15 36  1  0  0  0  0
 15 37  1  0  0  0  0
 15 38  1  0  0  0  0
 16 39  1  0  0  0  0
M  END
$$$$
