
 OpenBabel10062408443D

 39 39  0  0  1  0  0  0  0  0999 V2000
    8.3509    7.6614   -3.6955 C   0  0  0  0  0  0  0  0  0  0  0  0
    8.2103    6.1829   -3.8056 C   0  0  0  0  0  0  0  0  0  0  0  0
    8.8885    5.3865   -4.6462 C   0  0  0  0  0  0  0  0  0  0  0  0
    8.4741    3.9555   -4.5178 C   0  0  0  0  0  0  0  0  0  0  0  0
    7.7273    3.9264   -3.1613 C   0  0  2  0  0  0  0  0  0  0  0  0
    7.2075    5.3934   -2.9820 C   0  0  0  0  0  0  0  0  0  0  0  0
    5.8050    5.5205   -3.6105 C   0  0  0  0  0  0  0  0  0  0  0  0
    7.1324    5.8594   -1.5229 C   0  0  0  0  0  0  0  0  0  0  0  0
    8.6613    3.4143   -2.0761 C   0  0  0  0  0  0  0  0  0  0  0  0
    8.3286    2.6351   -1.0320 C   0  0  0  0  0  0  0  0  0  0  0  0
    9.1443    2.3013   -0.3922 H   0  0  0  0  0  0  0  0  0  0  0  0
    6.9332    2.1841   -0.6433 C   0  0  2  0  0  0  0  0  0  0  0  0
    6.6552    0.8031   -1.2421 C   0  0  0  0  0  0  0  0  0  0  0  0
    6.6850    2.1733    0.8909 C   0  0  2  0  0  0  0  0  0  0  0  0
    6.8825    3.5271    1.5663 C   0  0  0  0  0  0  0  0  0  0  0  0
    7.5009    1.2025    1.5488 O   0  0  0  0  0  0  0  0  0  0  0  0
    9.0934    8.0482   -4.4029 H   0  0  0  0  0  0  0  0  0  0  0  0
    8.6746    7.9445   -2.6900 H   0  0  0  0  0  0  0  0  0  0  0  0
    7.3981    8.1559   -3.9076 H   0  0  0  0  0  0  0  0  0  0  0  0
    9.6288    5.7253   -5.3550 H   0  0  0  0  0  0  0  0  0  0  0  0
    9.3395    3.2852   -4.5463 H   0  0  0  0  0  0  0  0  0  0  0  0
    7.8074    3.6910   -5.3470 H   0  0  0  0  0  0  0  0  0  0  0  0
    6.8892    3.2243   -3.2528 H   0  0  0  0  0  0  0  0  0  0  0  0
    5.7956    5.2137   -4.6632 H   0  0  0  0  0  0  0  0  0  0  0  0
    5.4380    6.5518   -3.5659 H   0  0  0  0  0  0  0  0  0  0  0  0
    5.0838    4.8881   -3.0773 H   0  0  0  0  0  0  0  0  0  0  0  0
    8.1183    5.8936   -1.0461 H   0  0  0  0  0  0  0  0  0  0  0  0
    6.4872    5.2005   -0.9375 H   0  0  0  0  0  0  0  0  0  0  0  0
    6.7044    6.8664   -1.4485 H   0  0  0  0  0  0  0  0  0  0  0  0
    9.7122    3.6837   -2.1873 H   0  0  0  0  0  0  0  0  0  0  0  0
    6.2020    2.8804   -1.0723 H   0  0  0  0  0  0  0  0  0  0  0  0
    7.3290    0.0393   -0.8402 H   0  0  0  0  0  0  0  0  0  0  0  0
    6.7740    0.8159   -2.3314 H   0  0  0  0  0  0  0  0  0  0  0  0
    5.6257    0.4951   -1.0288 H   0  0  0  0  0  0  0  0  0  0  0  0
    5.6475    1.8641    1.0664 H   0  0  0  0  0  0  0  0  0  0  0  0
    7.9143    3.8815    1.4746 H   0  0  0  0  0  0  0  0  0  0  0  0
    6.6782    3.4464    2.6400 H   0  0  0  0  0  0  0  0  0  0  0  0
    6.2085    4.2797    1.1478 H   0  0  0  0  0  0  0  0  0  0  0  0
    8.4256    1.4932    1.4812 H   0  0  0  0  0  0  0  0  0  0  0  0
  1  2  1  0  0  0  0
  1 17  1  0  0  0  0
  1 18  1  0  0  0  0
  1 19  1  0  0  0  0
  2  3  2  0  0  0  0
  2  6  1  0  0  0  0
  3  4  1  0  0  0  0
  3 20  1  0  0  0  0
  4  5  1  0  0  0  0
  4 21  1  0  0  0  0
  4 22  1  0  0  0  0
  5  6  1  0  0  0  0
  5  9  1  0  0  0  0
  5 23  1  6  0  0  0
  6  7  1  0  0  0  0
  6  8  1  0  0  0  0
  7 24  1  0  0  0  0
  7 25  1  0  0  0  0
  7 26  1  0  0  0  0
  8 27  1  0  0  0  0
  8 28  1  0  0  0  0
  8 29  1  0  0  0  0
  9 10  2  0  0  0  0
  9 30  1  0  0  0  0
 10 11  1  0  0  0  0
 12 13  1  0  0  0  0
 12 10  1  0  0  0  0
 12 31  1  1  0  0  0
 13 32  1  0  0  0  0
 13 33  1  0  0  0  0
 13 34  1  0  0  0  0
 14 16  1  0  0  0  0
 14 15  1  0  0  0  0
 14 12  1  0  0  0  0
 14 35  1  1  0  0  0
 15 36  1  0  0  0  0
 15 37  1  0  0  0  0
 15 38  1  0  0  0  0
 16 39  1  0  0  0  0
M  END
$$$$
