
 OpenBabel10062408463D

 39 39  0  0  1  0  0  0  0  0999 V2000
   14.4696    0.0822    0.7888 C   0  0  0  0  0  0  0  0  0  0  0  0
   13.1206    0.3140    0.1917 C   0  0  0  0  0  0  0  0  0  0  0  0
   12.4458    1.4655    0.2369 C   0  0  0  0  0  0  0  0  0  0  0  0
   11.0950    1.3652   -0.3855 C   0  0  0  0  0  0  0  0  0  0  0  0
   11.1388    0.0269   -1.1544 C   0  0  2  0  0  0  0  0  0  0  0  0
   12.3145   -0.7846   -0.4831 C   0  0  0  0  0  0  0  0  0  0  0  0
   11.7259   -1.7198    0.5959 C   0  0  0  0  0  0  0  0  0  0  0  0
   13.1515   -1.6298   -1.4523 C   0  0  0  0  0  0  0  0  0  0  0  0
   11.2073    0.2934   -2.6525 C   0  0  0  0  0  0  0  0  0  0  0  0
   10.1488    0.3983   -3.4814 C   0  0  0  0  0  0  0  0  0  0  0  0
   10.3555    0.5502   -4.5392 H   0  0  0  0  0  0  0  0  0  0  0  0
    8.6835    0.3391   -3.0683 C   0  0  1  0  0  0  0  0  0  0  0  0
    8.1490   -1.0882   -3.2113 C   0  0  0  0  0  0  0  0  0  0  0  0
    7.7524    1.3682   -3.7723 C   0  0  2  0  0  0  0  0  0  0  0  0
    7.7011    1.3062   -5.2954 C   0  0  0  0  0  0  0  0  0  0  0  0
    8.1070    2.6972   -3.3847 O   0  0  0  0  0  0  0  0  0  0  0  0
   14.8491    0.9866    1.2785 H   0  0  0  0  0  0  0  0  0  0  0  0
   15.1931   -0.2018    0.0196 H   0  0  0  0  0  0  0  0  0  0  0  0
   14.4320   -0.7098    1.5427 H   0  0  0  0  0  0  0  0  0  0  0  0
   12.8023    2.3724    0.7139 H   0  0  0  0  0  0  0  0  0  0  0  0
   10.8958    2.2253   -1.0323 H   0  0  0  0  0  0  0  0  0  0  0  0
   10.3274    1.3398    0.3970 H   0  0  0  0  0  0  0  0  0  0  0  0
   10.2047   -0.5183   -0.9669 H   0  0  0  0  0  0  0  0  0  0  0  0
   11.0943   -1.1716    1.3055 H   0  0  0  0  0  0  0  0  0  0  0  0
   12.5106   -2.2213    1.1713 H   0  0  0  0  0  0  0  0  0  0  0  0
   11.1042   -2.4964    0.1352 H   0  0  0  0  0  0  0  0  0  0  0  0
   13.7109   -1.0152   -2.1654 H   0  0  0  0  0  0  0  0  0  0  0  0
   12.5209   -2.3261   -2.0172 H   0  0  0  0  0  0  0  0  0  0  0  0
   13.8919   -2.2331   -0.9109 H   0  0  0  0  0  0  0  0  0  0  0  0
   12.2015    0.4185   -3.0800 H   0  0  0  0  0  0  0  0  0  0  0  0
    8.6351    0.5971   -2.0021 H   0  0  0  0  0  0  0  0  0  0  0  0
    7.9494   -1.3557   -4.2533 H   0  0  0  0  0  0  0  0  0  0  0  0
    7.2131   -1.1950   -2.6515 H   0  0  0  0  0  0  0  0  0  0  0  0
    8.8537   -1.8242   -2.8078 H   0  0  0  0  0  0  0  0  0  0  0  0
    6.7328    1.2114   -3.3970 H   0  0  0  0  0  0  0  0  0  0  0  0
    8.6818    1.4907   -5.7462 H   0  0  0  0  0  0  0  0  0  0  0  0
    7.0440    2.0975   -5.6770 H   0  0  0  0  0  0  0  0  0  0  0  0
    7.3205    0.3475   -5.6564 H   0  0  0  0  0  0  0  0  0  0  0  0
    8.9400    2.9239   -3.8338 H   0  0  0  0  0  0  0  0  0  0  0  0
  1  2  1  0  0  0  0
  1 17  1  0  0  0  0
  1 18  1  0  0  0  0
  1 19  1  0  0  0  0
  2  3  2  0  0  0  0
  2  6  1  0  0  0  0
  3  4  1  0  0  0  0
  3 20  1  0  0  0  0
  4  5  1  0  0  0  0
  4 21  1  0  0  0  0
  4 22  1  0  0  0  0
  5  6  1  0  0  0  0
  5  9  1  0  0  0  0
  5 23  1  1  0  0  0
  6  7  1  0  0  0  0
  6  8  1  0  0  0  0
  7 24  1  0  0  0  0
  7 25  1  0  0  0  0
  7 26  1  0  0  0  0
  8 27  1  0  0  0  0
  8 28  1  0  0  0  0
  8 29  1  0  0  0  0
  9 10  2  0  0  0  0
  9 30  1  0  0  0  0
 10 11  1  0  0  0  0
 10 12  1  0  0  0  0
 12 13  1  0  0  0  0
 12 31  1  6  0  0  0
 13 32  1  0  0  0  0
 13 33  1  0  0  0  0
 13 34  1  0  0  0  0
 14 16  1  0  0  0  0
 14 15  1  0  0  0  0
 14 12  1  0  0  0  0
 14 35  1  1  0  0  0
 15 36  1  0  0  0  0
 15 37  1  0  0  0  0
 15 38  1  0  0  0  0
 16 39  1  0  0  0  0
M  END
$$$$
