
 OpenBabel08282420563D

 31 31  0  0  1  0  0  0  0  0999 V2000
    3.0743    0.4735    1.5538 C   0  0  0  0  0  0  0  0  0  0  0  0
    2.5964    0.0776    0.1576 C   0  0  1  0  0  0  0  0  0  0  0  0
    3.0892    1.0707   -0.8951 C   0  0  0  0  0  0  0  0  0  0  0  0
    2.6884    0.6519   -2.3100 C   0  0  0  0  0  0  0  0  0  0  0  0
    3.1488   -0.7782   -2.6793 C   0  0  1  0  0  0  0  0  0  0  0  0
    2.6641   -1.7625   -1.5852 C   0  0  2  0  0  0  0  0  0  0  0  0
    3.0804   -1.3272   -0.1819 C   0  0  0  0  0  0  0  0  0  0  0  0
    3.1936   -3.0750   -1.7678 O   0  0  0  0  0  0  0  0  0  0  0  0
    2.6785   -1.1655   -4.1233 C   0  0  0  0  0  0  0  0  0  0  0  0
    3.1089   -2.5729   -4.5573 C   0  0  0  0  0  0  0  0  0  0  0  0
    3.1973   -0.1812   -5.1844 C   0  0  0  0  0  0  0  0  0  0  0  0
    2.7044    1.4676    1.8265 H   0  0  0  0  0  0  0  0  0  0  0  0
    4.1677    0.4901    1.6104 H   0  0  0  0  0  0  0  0  0  0  0  0
    2.7100   -0.2375    2.3024 H   0  0  0  0  0  0  0  0  0  0  0  0
    1.4984    0.0810    0.1588 H   0  0  0  0  0  0  0  0  0  0  0  0
    4.1818    1.1605   -0.8451 H   0  0  0  0  0  0  0  0  0  0  0  0
    2.6813    2.0664   -0.6856 H   0  0  0  0  0  0  0  0  0  0  0  0
    3.1196    1.3848   -2.9992 H   0  0  0  0  0  0  0  0  0  0  0  0
    1.5978    0.7227   -2.4099 H   0  0  0  0  0  0  0  0  0  0  0  0
    4.2485   -0.7937   -2.6832 H   0  0  0  0  0  0  0  0  0  0  0  0
    1.5716   -1.8510   -1.6297 H   0  0  0  0  0  0  0  0  0  0  0  0
    4.1764   -1.3799   -0.0968 H   0  0  0  0  0  0  0  0  0  0  0  0
    2.6988   -2.0496    0.5515 H   0  0  0  0  0  0  0  0  0  0  0  0
    4.1616   -2.9975   -1.8140 H   0  0  0  0  0  0  0  0  0  0  0  0
    1.5814   -1.1330   -4.1501 H   0  0  0  0  0  0  0  0  0  0  0  0
    4.1865   -2.7159   -4.4205 H   0  0  0  0  0  0  0  0  0  0  0  0
    2.8784   -2.7486   -5.6132 H   0  0  0  0  0  0  0  0  0  0  0  0
    2.5741   -3.3477   -4.0023 H   0  0  0  0  0  0  0  0  0  0  0  0
    4.2898   -0.1202   -5.1637 H   0  0  0  0  0  0  0  0  0  0  0  0
    2.7896    0.8233   -5.0448 H   0  0  0  0  0  0  0  0  0  0  0  0
    2.8979   -0.4996   -6.1896 H   0  0  0  0  0  0  0  0  0  0  0  0
  1 12  1  0  0  0  0
  1 13  1  0  0  0  0
  1 14  1  0  0  0  0
  2  3  1  0  0  0  0
  2  7  1  0  0  0  0
  2  1  1  0  0  0  0
  2 15  1  6  0  0  0
  3  4  1  0  0  0  0
  3 16  1  0  0  0  0
  3 17  1  0  0  0  0
  4  5  1  0  0  0  0
  4 18  1  0  0  0  0
  4 19  1  0  0  0  0
  5  6  1  0  0  0  0
  5  9  1  0  0  0  0
  5 20  1  1  0  0  0
  6  7  1  0  0  0  0
  6  8  1  0  0  0  0
  6 21  1  6  0  0  0
  7 22  1  0  0  0  0
  7 23  1  0  0  0  0
  8 24  1  0  0  0  0
  9 10  1  0  0  0  0
  9 11  1  0  0  0  0
  9 25  1  0  0  0  0
 10 26  1  0  0  0  0
 10 27  1  0  0  0  0
 10 28  1  0  0  0  0
 11 29  1  0  0  0  0
 11 30  1  0  0  0  0
 11 31  1  0  0  0  0
M  END
$$$$
