
 OpenBabel09172407223D

 27 28  0  0  1  0  0  0  0  0999 V2000
    1.0891    0.0359   -0.1516 O   0  0  0  0  0  0  0  0  0  0  0  0
    2.3114    0.0554   -0.1243 C   0  0  0  0  0  0  0  0  0  0  0  0
    3.1889    1.2092   -0.6097 C   0  0  0  0  0  0  0  0  0  0  0  0
    2.9040    1.5687   -2.0671 C   0  0  0  0  0  0  0  0  0  0  0  0
    2.9941    2.4485    0.2689 C   0  0  0  0  0  0  0  0  0  0  0  0
    4.5801    0.5316   -0.3738 C   0  0  1  0  0  0  0  0  0  0  0  0
    4.3684   -0.2616    0.9262 C   0  0  0  0  0  0  0  0  0  0  0  0
    3.2060   -1.0851    0.3651 C   0  0  3  0  0  0  0  0  0  0  0  0
    2.5669   -2.0546    1.3258 C   0  0  0  0  0  0  0  0  0  0  0  0
    3.8210   -1.7093   -0.8996 C   0  0  0  0  0  0  0  0  0  0  0  0
    4.8298   -0.6362   -1.3553 C   0  0  0  0  0  0  0  0  0  0  0  0
    1.9340    2.0701   -2.1637 H   0  0  0  0  0  0  0  0  0  0  0  0
    2.8518    0.6898   -2.7164 H   0  0  0  0  0  0  0  0  0  0  0  0
    3.6723    2.2447   -2.4579 H   0  0  0  0  0  0  0  0  0  0  0  0
    2.0040    2.8907    0.1068 H   0  0  0  0  0  0  0  0  0  0  0  0
    3.7441    3.2119    0.0334 H   0  0  0  0  0  0  0  0  0  0  0  0
    3.0622    2.2273    1.3381 H   0  0  0  0  0  0  0  0  0  0  0  0
    5.4098    1.2419   -0.3382 H   0  0  0  0  0  0  0  0  0  0  0  0
    4.0933    0.3576    1.7854 H   0  0  0  0  0  0  0  0  0  0  0  0
    5.2339   -0.8762    1.1989 H   0  0  0  0  0  0  0  0  0  0  0  0
    2.1556   -1.5363    2.1989 H   0  0  0  0  0  0  0  0  0  0  0  0
    3.2948   -2.7905    1.6841 H   0  0  0  0  0  0  0  0  0  0  0  0
    1.7444   -2.5986    0.8494 H   0  0  0  0  0  0  0  0  0  0  0  0
    3.0702   -1.9035   -1.6736 H   0  0  0  0  0  0  0  0  0  0  0  0
    4.3427   -2.6476   -0.6813 H   0  0  0  0  0  0  0  0  0  0  0  0
    4.7113   -0.3690   -2.4077 H   0  0  0  0  0  0  0  0  0  0  0  0
    5.8509   -1.0175   -1.2344 H   0  0  0  0  0  0  0  0  0  0  0  0
  1  2  2  0  0  0  0
  2  3  1  0  0  0  0
  2  8  1  0  0  0  0
  3  4  1  0  0  0  0
  3  5  1  0  0  0  0
  3  6  1  0  0  0  0
  4 12  1  0  0  0  0
  4 13  1  0  0  0  0
  4 14  1  0  0  0  0
  5 15  1  0  0  0  0
  5 16  1  0  0  0  0
  5 17  1  0  0  0  0
  6  7  1  0  0  0  0
  6 11  1  0  0  0  0
  6 18  1  1  0  0  0
  7  8  1  0  0  0  0
  7 19  1  0  0  0  0
  7 20  1  0  0  0  0
  8  9  1  0  0  0  0
  8 10  1  0  0  0  0
  9 21  1  0  0  0  0
  9 22  1  0  0  0  0
  9 23  1  0  0  0  0
 10 11  1  0  0  0  0
 10 24  1  0  0  0  0
 10 25  1  0  0  0  0
 11 26  1  0  0  0  0
 11 27  1  0  0  0  0
M  END
$$$$
