
 OpenBabel09032416473D

 38 38  0  0  1  0  0  0  0  0999 V2000
    3.7180    0.0960   -2.9686 O   0  0  0  0  0  0  0  0  0  0  0  0
    4.5090    1.0189   -2.8853 C   0  0  0  0  0  0  0  0  0  0  0  0
    5.0622    1.6956   -3.9353 O   0  0  0  0  0  0  0  0  0  0  0  0
    4.7453    1.1883   -5.2304 C   0  0  0  0  0  0  0  0  0  0  0  0
    5.0547    1.6175   -1.6050 C   0  0  0  0  0  0  0  0  0  0  0  0
    4.6187    0.9435   -0.3030 C   0  0  1  0  0  0  0  0  0  0  0  0
    5.1261   -0.4608    0.1097 C   0  0  2  0  0  0  0  0  0  0  0  0
    6.1074   -0.2008    1.2303 C   0  0  0  0  0  0  0  0  0  0  0  0
    6.7611   -1.0707    1.7912 O   0  0  0  0  0  0  0  0  0  0  0  0
    6.1874    1.2451    1.6021 C   0  0  0  0  0  0  0  0  0  0  0  0
    4.9892    1.8615    0.8955 C   0  0  0  0  0  0  0  0  0  0  0  0
    5.6180   -1.5163   -0.8752 C   0  0  0  0  0  0  0  0  0  0  0  0
    6.8033   -1.2606   -1.8232 C   0  0  0  0  0  0  0  0  0  0  0  0
    8.1611   -0.8896   -1.2334 C   0  0  0  0  0  0  0  0  0  0  0  0
    9.1536   -0.7240   -2.3965 C   0  0  0  0  0  0  0  0  0  0  0  0
   10.5573   -0.3291   -1.9755 C   0  0  0  0  0  0  0  0  0  0  0  0
    5.3993    1.6830   -5.9529 H   0  0  0  0  0  0  0  0  0  0  0  0
    3.7068    1.4177   -5.4876 H   0  0  0  0  0  0  0  0  0  0  0  0
    4.9309    0.1107   -5.2825 H   0  0  0  0  0  0  0  0  0  0  0  0
    4.6537    2.6438   -1.5974 H   0  0  0  0  0  0  0  0  0  0  0  0
    6.1470    1.6872   -1.6626 H   0  0  0  0  0  0  0  0  0  0  0  0
    3.5220    0.8912   -0.3470 H   0  0  0  0  0  0  0  0  0  0  0  0
    4.2720   -0.9246    0.6278 H   0  0  0  0  0  0  0  0  0  0  0  0
    7.1306    1.6529    1.2339 H   0  0  0  0  0  0  0  0  0  0  0  0
    6.1134    1.3693    2.6875 H   0  0  0  0  0  0  0  0  0  0  0  0
    5.2137    2.8866    0.5967 H   0  0  0  0  0  0  0  0  0  0  0  0
    4.1392    1.9099    1.5870 H   0  0  0  0  0  0  0  0  0  0  0  0
    5.8689   -2.4226   -0.3009 H   0  0  0  0  0  0  0  0  0  0  0  0
    4.7651   -1.8104   -1.4976 H   0  0  0  0  0  0  0  0  0  0  0  0
    6.5191   -0.5153   -2.5652 H   0  0  0  0  0  0  0  0  0  0  0  0
    6.9335   -2.1921   -2.3933 H   0  0  0  0  0  0  0  0  0  0  0  0
    8.5090   -1.6730   -0.5501 H   0  0  0  0  0  0  0  0  0  0  0  0
    8.0981    0.0459   -0.6713 H   0  0  0  0  0  0  0  0  0  0  0  0
    8.7730    0.0413   -3.0843 H   0  0  0  0  0  0  0  0  0  0  0  0
    9.2106   -1.6601   -2.9647 H   0  0  0  0  0  0  0  0  0  0  0  0
   10.5567    0.5998   -1.3985 H   0  0  0  0  0  0  0  0  0  0  0  0
   11.1732   -0.1680   -2.8687 H   0  0  0  0  0  0  0  0  0  0  0  0
   11.0318   -1.1153   -1.3815 H   0  0  0  0  0  0  0  0  0  0  0  0
  1  2  2  0  0  0  0
  2  3  1  0  0  0  0
  2  5  1  0  0  0  0
  3  4  1  0  0  0  0
  4 17  1  0  0  0  0
  4 18  1  0  0  0  0
  4 19  1  0  0  0  0
  5 20  1  0  0  0  0
  5 21  1  0  0  0  0
  6  7  1  0  0  0  0
  6 11  1  0  0  0  0
  6  5  1  0  0  0  0
  6 22  1  6  0  0  0
  7  8  1  0  0  0  0
  7 12  1  0  0  0  0
  7 23  1  1  0  0  0
  8  9  2  0  0  0  0
  8 10  1  0  0  0  0
 10 11  1  0  0  0  0
 10 24  1  0  0  0  0
 10 25  1  0  0  0  0
 11 26  1  0  0  0  0
 11 27  1  0  0  0  0
 12 13  1  0  0  0  0
 12 28  1  0  0  0  0
 12 29  1  0  0  0  0
 13 14  1  0  0  0  0
 13 30  1  0  0  0  0
 13 31  1  0  0  0  0
 14 15  1  0  0  0  0
 14 32  1  0  0  0  0
 14 33  1  0  0  0  0
 15 16  1  0  0  0  0
 15 34  1  0  0  0  0
 15 35  1  0  0  0  0
 16 36  1  0  0  0  0
 16 37  1  0  0  0  0
 16 38  1  0  0  0  0
M  END
$$$$
