
 OpenBabel09172521363D

 42 42  0  0  1  0  0  0  0  0999 V2000
    0.9854   -0.0343    0.0802 C   0  0  0  0  0  0  0  0  0  0  0  0
    2.4747   -0.0177    0.0577 C   0  0  0  0  0  0  0  0  0  0  0  0
    3.2642   -1.1022   -0.0012 C   0  0  0  0  0  0  0  0  0  0  0  0
    4.7133   -0.7506    0.0506 C   0  0  0  0  0  0  0  0  0  0  0  0
    4.7044    0.7563   -0.2600 C   0  0  1  0  0  0  0  0  0  0  0  0
    3.2862    1.2638    0.1738 C   0  0  0  0  0  0  0  0  0  0  0  0
    3.2119    1.7875    1.6192 C   0  0  0  0  0  0  0  0  0  0  0  0
    2.8126    2.3647   -0.7866 C   0  0  0  0  0  0  0  0  0  0  0  0
    5.8899    1.4643    0.3479 C   0  0  0  0  0  0  0  0  0  0  0  0
    6.7847    2.1733   -0.3624 C   0  0  0  0  0  0  0  0  0  0  0  0
    7.9991    2.9370    0.1706 C   0  0  0  0  0  0  0  0  0  0  0  0
    7.8229    4.4090   -0.2661 C   0  0  0  0  0  0  0  0  0  0  0  0
    8.0895    2.9225    1.7130 C   0  0  0  0  0  0  0  0  0  0  0  0
    9.3338    2.3786   -0.4316 C   0  0  1  0  0  0  0  0  0  0  0  0
    9.6307    0.9145   -0.1081 C   0  0  0  0  0  0  0  0  0  0  0  0
    9.3666    2.5345   -1.8550 O   0  0  0  0  0  0  0  0  0  0  0  0
    0.5959   -1.0565    0.0284 H   0  0  0  0  0  0  0  0  0  0  0  0
    0.5797    0.5179   -0.7727 H   0  0  0  0  0  0  0  0  0  0  0  0
    0.6079    0.4172    1.0023 H   0  0  0  0  0  0  0  0  0  0  0  0
    2.9080   -2.1228   -0.0454 H   0  0  0  0  0  0  0  0  0  0  0  0
    5.2813   -1.2995   -0.7079 H   0  0  0  0  0  0  0  0  0  0  0  0
    5.1259   -0.9862    1.0378 H   0  0  0  0  0  0  0  0  0  0  0  0
    4.7754    0.8452   -1.3562 H   0  0  0  0  0  0  0  0  0  0  0  0
    3.5342    1.0330    2.3449 H   0  0  0  0  0  0  0  0  0  0  0  0
    2.1868    2.0767    1.8816 H   0  0  0  0  0  0  0  0  0  0  0  0
    3.8356    2.6778    1.7562 H   0  0  0  0  0  0  0  0  0  0  0  0
    2.7733    2.0067   -1.8219 H   0  0  0  0  0  0  0  0  0  0  0  0
    3.4883    3.2274   -0.7573 H   0  0  0  0  0  0  0  0  0  0  0  0
    1.8104    2.7216   -0.5241 H   0  0  0  0  0  0  0  0  0  0  0  0
    5.9958    1.3690    1.4251 H   0  0  0  0  0  0  0  0  0  0  0  0
    6.6326    2.2483   -1.4401 H   0  0  0  0  0  0  0  0  0  0  0  0
    6.9072    4.8413    0.1566 H   0  0  0  0  0  0  0  0  0  0  0  0
    7.7564    4.5097   -1.3557 H   0  0  0  0  0  0  0  0  0  0  0  0
    8.6650    5.0238    0.0717 H   0  0  0  0  0  0  0  0  0  0  0  0
    7.1974    3.3670    2.1701 H   0  0  0  0  0  0  0  0  0  0  0  0
    8.9539    3.4991    2.0611 H   0  0  0  0  0  0  0  0  0  0  0  0
    8.1906    1.9073    2.1125 H   0  0  0  0  0  0  0  0  0  0  0  0
   10.1670    2.9807   -0.0485 H   0  0  0  0  0  0  0  0  0  0  0  0
    8.8499    0.2500   -0.4919 H   0  0  0  0  0  0  0  0  0  0  0  0
    9.7407    0.7459    0.9663 H   0  0  0  0  0  0  0  0  0  0  0  0
   10.5632    0.6052   -0.5940 H   0  0  0  0  0  0  0  0  0  0  0  0
    8.7397    1.8956   -2.2347 H   0  0  0  0  0  0  0  0  0  0  0  0
  1  2  1  0  0  0  0
  1 17  1  0  0  0  0
  1 18  1  0  0  0  0
  1 19  1  0  0  0  0
  2  3  2  0  0  0  0
  2  6  1  0  0  0  0
  3  4  1  0  0  0  0
  3 20  1  0  0  0  0
  4  5  1  0  0  0  0
  4 21  1  0  0  0  0
  4 22  1  0  0  0  0
  5  6  1  0  0  0  0
  5  9  1  0  0  0  0
  5 23  1  6  0  0  0
  6  7  1  0  0  0  0
  6  8  1  0  0  0  0
  7 24  1  0  0  0  0
  7 25  1  0  0  0  0
  7 26  1  0  0  0  0
  8 27  1  0  0  0  0
  8 28  1  0  0  0  0
  8 29  1  0  0  0  0
  9 10  2  0  0  0  0
  9 30  1  0  0  0  0
 10 11  1  0  0  0  0
 10 31  1  0  0  0  0
 11 12  1  0  0  0  0
 11 13  1  0  0  0  0
 11 14  1  0  0  0  0
 12 32  1  0  0  0  0
 12 33  1  0  0  0  0
 12 34  1  0  0  0  0
 13 35  1  0  0  0  0
 13 36  1  0  0  0  0
 13 37  1  0  0  0  0
 14 15  1  0  0  0  0
 14 16  1  0  0  0  0
 14 38  1  1  0  0  0
 15 39  1  0  0  0  0
 15 40  1  0  0  0  0
 15 41  1  0  0  0  0
 16 42  1  0  0  0  0
M  END
$$$$
