
 OpenBabel09172521363D

 42 42  0  0  1  0  0  0  0  0999 V2000
    0.9472    0.0955    0.0720 C   0  0  0  0  0  0  0  0  0  0  0  0
    2.4373    0.1039    0.0553 C   0  0  0  0  0  0  0  0  0  0  0  0
    3.2255   -0.9799    0.0094 C   0  0  0  0  0  0  0  0  0  0  0  0
    4.6770   -0.6201    0.0305 C   0  0  0  0  0  0  0  0  0  0  0  0
    4.6680    0.8831   -0.3300 C   0  0  2  0  0  0  0  0  0  0  0  0
    3.2542    1.3846    0.1317 C   0  0  0  0  0  0  0  0  0  0  0  0
    3.3246    1.8680    1.5939 C   0  0  0  0  0  0  0  0  0  0  0  0
    2.6874    2.5205   -0.7337 C   0  0  0  0  0  0  0  0  0  0  0  0
    4.9288    1.0222   -1.8182 C   0  0  0  0  0  0  0  0  0  0  0  0
    5.9373    1.7206   -2.3681 C   0  0  0  0  0  0  0  0  0  0  0  0
    6.2203    1.8722   -3.8679 C   0  0  0  0  0  0  0  0  0  0  0  0
    5.1721    1.1324   -4.7384 C   0  0  0  0  0  0  0  0  0  0  0  0
    6.1236    3.3701   -4.2133 C   0  0  0  0  0  0  0  0  0  0  0  0
    7.6392    1.3180   -4.2401 C   0  0  1  0  0  0  0  0  0  0  0  0
    8.8262    1.9987   -3.5612 C   0  0  0  0  0  0  0  0  0  0  0  0
    7.7293   -0.0841   -3.9691 O   0  0  0  0  0  0  0  0  0  0  0  0
    0.5525   -0.9258    0.0457 H   0  0  0  0  0  0  0  0  0  0  0  0
    0.5473    0.6253   -0.7980 H   0  0  0  0  0  0  0  0  0  0  0  0
    0.5693    0.5769    0.9791 H   0  0  0  0  0  0  0  0  0  0  0  0
    2.8726   -2.0022   -0.0226 H   0  0  0  0  0  0  0  0  0  0  0  0
    5.2475   -1.2240   -0.6827 H   0  0  0  0  0  0  0  0  0  0  0  0
    5.0862   -0.7884    1.0328 H   0  0  0  0  0  0  0  0  0  0  0  0
    5.4656    1.3979    0.2200 H   0  0  0  0  0  0  0  0  0  0  0  0
    3.7183    1.0943    2.2636 H   0  0  0  0  0  0  0  0  0  0  0  0
    2.3363    2.1555    1.9684 H   0  0  0  0  0  0  0  0  0  0  0  0
    3.9801    2.7424    1.6805 H   0  0  0  0  0  0  0  0  0  0  0  0
    2.4646    2.1920   -1.7549 H   0  0  0  0  0  0  0  0  0  0  0  0
    3.3902    3.3593   -0.7905 H   0  0  0  0  0  0  0  0  0  0  0  0
    1.7510    2.9075   -0.3147 H   0  0  0  0  0  0  0  0  0  0  0  0
    4.2167    0.4961   -2.4508 H   0  0  0  0  0  0  0  0  0  0  0  0
    6.6194    2.2459   -1.7013 H   0  0  0  0  0  0  0  0  0  0  0  0
    4.1629    1.5291   -4.5736 H   0  0  0  0  0  0  0  0  0  0  0  0
    5.1503    0.0571   -4.5295 H   0  0  0  0  0  0  0  0  0  0  0  0
    5.3940    1.2522   -5.8052 H   0  0  0  0  0  0  0  0  0  0  0  0
    5.1191    3.7605   -4.0074 H   0  0  0  0  0  0  0  0  0  0  0  0
    6.3333    3.5432   -5.2750 H   0  0  0  0  0  0  0  0  0  0  0  0
    6.8258    3.9759   -3.6310 H   0  0  0  0  0  0  0  0  0  0  0  0
    7.7791    1.4241   -5.3236 H   0  0  0  0  0  0  0  0  0  0  0  0
    8.7996    1.8727   -2.4742 H   0  0  0  0  0  0  0  0  0  0  0  0
    8.8787    3.0647   -3.7959 H   0  0  0  0  0  0  0  0  0  0  0  0
    9.7618    1.5360   -3.8967 H   0  0  0  0  0  0  0  0  0  0  0  0
    7.5761   -0.2047   -3.0146 H   0  0  0  0  0  0  0  0  0  0  0  0
  1  2  1  0  0  0  0
  1 17  1  0  0  0  0
  1 18  1  0  0  0  0
  1 19  1  0  0  0  0
  2  3  2  0  0  0  0
  2  6  1  0  0  0  0
  3  4  1  0  0  0  0
  3 20  1  0  0  0  0
  4  5  1  0  0  0  0
  4 21  1  0  0  0  0
  4 22  1  0  0  0  0
  5  6  1  0  0  0  0
  5  9  1  0  0  0  0
  5 23  1  1  0  0  0
  6  7  1  0  0  0  0
  6  8  1  0  0  0  0
  7 24  1  0  0  0  0
  7 25  1  0  0  0  0
  7 26  1  0  0  0  0
  8 27  1  0  0  0  0
  8 28  1  0  0  0  0
  8 29  1  0  0  0  0
  9 10  2  0  0  0  0
  9 30  1  0  0  0  0
 10 11  1  0  0  0  0
 10 31  1  0  0  0  0
 11 12  1  0  0  0  0
 11 13  1  0  0  0  0
 11 14  1  0  0  0  0
 12 32  1  0  0  0  0
 12 33  1  0  0  0  0
 12 34  1  0  0  0  0
 13 35  1  0  0  0  0
 13 36  1  0  0  0  0
 13 37  1  0  0  0  0
 14 15  1  0  0  0  0
 14 16  1  0  0  0  0
 14 38  1  6  0  0  0
 15 39  1  0  0  0  0
 15 40  1  0  0  0  0
 15 41  1  0  0  0  0
 16 42  1  0  0  0  0
M  END
$$$$
