
 OpenBabel11112414073D

 41 41  0  0  1  0  0  0  0  0999 V2000
    0.9711   -0.0364    0.0705 C   0  0  0  0  0  0  0  0  0  0  0  0
    2.4618   -0.0121    0.0430 C   0  0  0  0  0  0  0  0  0  0  0  0
    3.2512   -1.0920   -0.0277 C   0  0  0  0  0  0  0  0  0  0  0  0
    4.6994   -0.7350    0.0389 C   0  0  0  0  0  0  0  0  0  0  0  0
    4.6928    0.7763   -0.2342 C   0  0  1  0  0  0  0  0  0  0  0  0
    3.2629    1.2691    0.1689 C   0  0  0  0  0  0  0  0  0  0  0  0
    3.1567    1.8111    1.6039 C   0  0  0  0  0  0  0  0  0  0  0  0
    2.7947    2.3530   -0.8144 C   0  0  0  0  0  0  0  0  0  0  0  0
    5.8692    1.5157    0.4247 C   0  0  0  0  0  0  0  0  0  0  0  0
    7.2262    1.0370   -0.1118 C   0  0  0  0  0  0  0  0  0  0  0  0
    8.4466    1.7845    0.4710 C   0  0  1  0  0  0  0  0  0  0  0  0
    8.5248    1.6233    1.9979 C   0  0  0  0  0  0  0  0  0  0  0  0
    9.7659    1.2903   -0.1781 C   0  0  1  0  0  0  0  0  0  0  0  0
    9.8302    1.4907   -1.6888 C   0  0  0  0  0  0  0  0  0  0  0  0
   10.8803    1.9793    0.3938 O   0  0  0  0  0  0  0  0  0  0  0  0
    0.5840   -1.0538   -0.0163 H   0  0  0  0  0  0  0  0  0  0  0  0
    0.5588    0.5490   -0.7536 H   0  0  0  0  0  0  0  0  0  0  0  0
    0.5975    0.3791    1.0138 H   0  0  0  0  0  0  0  0  0  0  0  0
    2.9025   -2.1168   -0.0815 H   0  0  0  0  0  0  0  0  0  0  0  0
    5.2680   -1.2681   -0.7324 H   0  0  0  0  0  0  0  0  0  0  0  0
    5.1085   -0.9913    1.0215 H   0  0  0  0  0  0  0  0  0  0  0  0
    4.8008    0.9016   -1.3232 H   0  0  0  0  0  0  0  0  0  0  0  0
    3.5217    1.0883    2.3397 H   0  0  0  0  0  0  0  0  0  0  0  0
    2.1165    2.0452    1.8616 H   0  0  0  0  0  0  0  0  0  0  0  0
    3.7283    2.7384    1.7239 H   0  0  0  0  0  0  0  0  0  0  0  0
    2.7614    1.9776   -1.8446 H   0  0  0  0  0  0  0  0  0  0  0  0
    3.4682    3.2172   -0.7962 H   0  0  0  0  0  0  0  0  0  0  0  0
    1.7896    2.7133   -0.5645 H   0  0  0  0  0  0  0  0  0  0  0  0
    5.7734    2.5918    0.2362 H   0  0  0  0  0  0  0  0  0  0  0  0
    5.8276    1.3667    1.5080 H   0  0  0  0  0  0  0  0  0  0  0  0
    7.2070    1.1632   -1.1994 H   0  0  0  0  0  0  0  0  0  0  0  0
    7.3454   -0.0356    0.0817 H   0  0  0  0  0  0  0  0  0  0  0  0
    8.3397    2.8580    0.2661 H   0  0  0  0  0  0  0  0  0  0  0  0
    8.6091    0.5673    2.2764 H   0  0  0  0  0  0  0  0  0  0  0  0
    7.6418    2.0375    2.4930 H   0  0  0  0  0  0  0  0  0  0  0  0
    9.3887    2.1524    2.4131 H   0  0  0  0  0  0  0  0  0  0  0  0
    9.9063    0.2256    0.0422 H   0  0  0  0  0  0  0  0  0  0  0  0
    9.6765    2.5431   -1.9511 H   0  0  0  0  0  0  0  0  0  0  0  0
    9.0906    0.8841   -2.2179 H   0  0  0  0  0  0  0  0  0  0  0  0
   10.8202    1.2131   -2.0675 H   0  0  0  0  0  0  0  0  0  0  0  0
   10.7582    2.9300    0.2325 H   0  0  0  0  0  0  0  0  0  0  0  0
  1  2  1  0  0  0  0
  1 16  1  0  0  0  0
  1 17  1  0  0  0  0
  1 18  1  0  0  0  0
  2  3  2  0  0  0  0
  2  6  1  0  0  0  0
  3  4  1  0  0  0  0
  3 19  1  0  0  0  0
  4  5  1  0  0  0  0
  4 20  1  0  0  0  0
  4 21  1  0  0  0  0
  5  6  1  0  0  0  0
  5  9  1  0  0  0  0
  5 22  1  6  0  0  0
  6  7  1  0  0  0  0
  6  8  1  0  0  0  0
  7 23  1  0  0  0  0
  7 24  1  0  0  0  0
  7 25  1  0  0  0  0
  8 26  1  0  0  0  0
  8 27  1  0  0  0  0
  8 28  1  0  0  0  0
  9 10  1  0  0  0  0
  9 29  1  0  0  0  0
  9 30  1  0  0  0  0
 10 11  1  0  0  0  0
 10 31  1  0  0  0  0
 10 32  1  0  0  0  0
 11 12  1  0  0  0  0
 11 13  1  0  0  0  0
 11 33  1  6  0  0  0
 12 34  1  0  0  0  0
 12 35  1  0  0  0  0
 12 36  1  0  0  0  0
 13 14  1  0  0  0  0
 13 15  1  0  0  0  0
 13 37  1  1  0  0  0
 14 38  1  0  0  0  0
 14 39  1  0  0  0  0
 14 40  1  0  0  0  0
 15 41  1  0  0  0  0
M  END
$$$$
