
 OpenBabel02132500133D

 26 27  0  0  1  0  0  0  0  0999 V2000
    1.7673   -0.0889    4.8650 C   0  0  0  0  0  0  0  0  0  0  0  0
    2.3796   -1.4260    4.5001 C   0  0  0  0  0  0  0  0  0  0  0  0
    3.1176   -1.3472    3.2736 O   0  0  0  0  0  0  0  0  0  0  0  0
    4.4720   -1.3727    3.3976 C   0  0  0  0  0  0  0  0  0  0  0  0
    5.1094   -1.1717    4.4195 O   0  0  0  0  0  0  0  0  0  0  0  0
    5.1191   -1.7653    2.1293 C   0  0  1  0  0  0  0  0  0  0  0  0
    6.3063   -2.7078    2.1588 C   0  0  1  0  0  0  0  0  0  0  0  0
    4.9863   -3.1656    1.8213 O   0  0  0  0  0  0  0  0  0  0  0  0
    7.3391   -2.6796    1.0617 C   0  0  0  0  0  0  0  0  0  0  0  0
    8.4276   -1.7929    1.1219 C   0  0  0  0  0  0  0  0  0  0  0  0
    9.4200   -1.7907    0.1374 C   0  0  0  0  0  0  0  0  0  0  0  0
    9.3403   -2.6747   -0.9344 C   0  0  0  0  0  0  0  0  0  0  0  0
    8.2687   -3.5608   -1.0215 C   0  0  0  0  0  0  0  0  0  0  0  0
    7.2821   -3.5597   -0.0321 C   0  0  0  0  0  0  0  0  0  0  0  0
    1.1299   -0.1940    5.7491 H   0  0  0  0  0  0  0  0  0  0  0  0
    1.1610    0.3027    4.0421 H   0  0  0  0  0  0  0  0  0  0  0  0
    2.5421    0.6527    5.0807 H   0  0  0  0  0  0  0  0  0  0  0  0
    1.5812   -2.1554    4.3310 H   0  0  0  0  0  0  0  0  0  0  0  0
    2.9908   -1.8096    5.3246 H   0  0  0  0  0  0  0  0  0  0  0  0
    5.0125   -1.0738    1.3040 H   0  0  0  0  0  0  0  0  0  0  0  0
    6.6772   -2.9974    3.1393 H   0  0  0  0  0  0  0  0  0  0  0  0
    8.5141   -1.1030    1.9593 H   0  0  0  0  0  0  0  0  0  0  0  0
   10.2579   -1.1025    0.2125 H   0  0  0  0  0  0  0  0  0  0  0  0
   10.1136   -2.6798   -1.6973 H   0  0  0  0  0  0  0  0  0  0  0  0
    8.2008   -4.2555   -1.8574 H   0  0  0  0  0  0  0  0  0  0  0  0
    6.4582   -4.2668   -0.1108 H   0  0  0  0  0  0  0  0  0  0  0  0
  1  2  1  0  0  0  0
  1 15  1  0  0  0  0
  1 16  1  0  0  0  0
  1 17  1  0  0  0  0
  2  3  1  0  0  0  0
  2 18  1  0  0  0  0
  2 19  1  0  0  0  0
  3  4  1  0  0  0  0
  4  5  2  0  0  0  0
  6  7  1  0  0  0  0
  6  8  1  0  0  0  0
  6  4  1  0  0  0  0
  6 20  1  6  0  0  0
  7  8  1  0  0  0  0
  7  9  1  0  0  0  0
  7 21  1  1  0  0  0
  9 10  2  0  0  0  0
  9 14  1  0  0  0  0
 10 11  1  0  0  0  0
 10 22  1  0  0  0  0
 11 12  2  0  0  0  0
 11 23  1  0  0  0  0
 12 13  1  0  0  0  0
 12 24  1  0  0  0  0
 13 14  2  0  0  0  0
 13 25  1  0  0  0  0
 14 26  1  0  0  0  0
M  END
$$$$
