
 OpenBabel11112414073D

 41 41  0  0  1  0  0  0  0  0999 V2000
    2.2452    4.5236   -0.2528 C   0  0  0  0  0  0  0  0  0  0  0  0
    3.1512    4.5217   -1.4355 C   0  0  0  0  0  0  0  0  0  0  0  0
    4.3531    5.1096   -1.4987 C   0  0  0  0  0  0  0  0  0  0  0  0
    4.9937    4.9130   -2.8311 C   0  0  0  0  0  0  0  0  0  0  0  0
    4.1988    3.7207   -3.4238 C   0  0  2  0  0  0  0  0  0  0  0  0
    2.7876    3.8465   -2.7474 C   0  0  0  0  0  0  0  0  0  0  0  0
    1.8850    4.7703   -3.5926 C   0  0  0  0  0  0  0  0  0  0  0  0
    2.0313    2.5356   -2.5233 C   0  0  0  0  0  0  0  0  0  0  0  0
    4.9863    2.4092   -3.1608 C   0  0  0  0  0  0  0  0  0  0  0  0
    4.5081    1.1473   -3.8983 C   0  0  0  0  0  0  0  0  0  0  0  0
    4.3863    1.2832   -5.4273 C   0  0  2  0  0  0  0  0  0  0  0  0
    3.6122    0.0779   -5.9845 C   0  0  0  0  0  0  0  0  0  0  0  0
    5.7593    1.4914   -6.1040 C   0  0  1  0  0  0  0  0  0  0  0  0
    6.7355    0.3302   -5.9402 C   0  0  0  0  0  0  0  0  0  0  0  0
    5.5771    1.7577   -7.4941 O   0  0  0  0  0  0  0  0  0  0  0  0
    2.6574    5.1184    0.5685 H   0  0  0  0  0  0  0  0  0  0  0  0
    2.1026    3.5042    0.1194 H   0  0  0  0  0  0  0  0  0  0  0  0
    1.2681    4.9406   -0.5148 H   0  0  0  0  0  0  0  0  0  0  0  0
    4.8112    5.6746   -0.6987 H   0  0  0  0  0  0  0  0  0  0  0  0
    6.0635    4.7058   -2.7355 H   0  0  0  0  0  0  0  0  0  0  0  0
    4.8726    5.8178   -3.4376 H   0  0  0  0  0  0  0  0  0  0  0  0
    4.1325    3.8783   -4.5060 H   0  0  0  0  0  0  0  0  0  0  0  0
    2.3273    5.7605   -3.7428 H   0  0  0  0  0  0  0  0  0  0  0  0
    0.9072    4.9138   -3.1189 H   0  0  0  0  0  0  0  0  0  0  0  0
    1.7099    4.3334   -4.5838 H   0  0  0  0  0  0  0  0  0  0  0  0
    2.5737    1.8551   -1.8603 H   0  0  0  0  0  0  0  0  0  0  0  0
    1.8269    2.0333   -3.4760 H   0  0  0  0  0  0  0  0  0  0  0  0
    1.0559    2.7124   -2.0565 H   0  0  0  0  0  0  0  0  0  0  0  0
    5.0058    2.1972   -2.0844 H   0  0  0  0  0  0  0  0  0  0  0  0
    6.0353    2.5711   -3.4411 H   0  0  0  0  0  0  0  0  0  0  0  0
    3.5562    0.8048   -3.4901 H   0  0  0  0  0  0  0  0  0  0  0  0
    5.1985    0.3321   -3.6500 H   0  0  0  0  0  0  0  0  0  0  0  0
    3.7612    2.1489   -5.6706 H   0  0  0  0  0  0  0  0  0  0  0  0
    4.0934   -0.8704   -5.7296 H   0  0  0  0  0  0  0  0  0  0  0  0
    3.5114    0.1291   -7.0720 H   0  0  0  0  0  0  0  0  0  0  0  0
    2.5960    0.0552   -5.5692 H   0  0  0  0  0  0  0  0  0  0  0  0
    6.2267    2.3924   -5.6930 H   0  0  0  0  0  0  0  0  0  0  0  0
    6.3226   -0.6020   -6.3380 H   0  0  0  0  0  0  0  0  0  0  0  0
    7.0085    0.1722   -4.8933 H   0  0  0  0  0  0  0  0  0  0  0  0
    7.6552    0.5256   -6.5017 H   0  0  0  0  0  0  0  0  0  0  0  0
    5.3231    0.9296   -7.9328 H   0  0  0  0  0  0  0  0  0  0  0  0
  1  2  1  0  0  0  0
  1 16  1  0  0  0  0
  1 17  1  0  0  0  0
  1 18  1  0  0  0  0
  2  3  2  0  0  0  0
  2  6  1  0  0  0  0
  3  4  1  0  0  0  0
  3 19  1  0  0  0  0
  4  5  1  0  0  0  0
  4 20  1  0  0  0  0
  4 21  1  0  0  0  0
  5  6  1  0  0  0  0
  5  9  1  0  0  0  0
  5 22  1  6  0  0  0
  6  7  1  0  0  0  0
  6  8  1  0  0  0  0
  7 23  1  0  0  0  0
  7 24  1  0  0  0  0
  7 25  1  0  0  0  0
  8 26  1  0  0  0  0
  8 27  1  0  0  0  0
  8 28  1  0  0  0  0
  9 10  1  0  0  0  0
  9 29  1  0  0  0  0
  9 30  1  0  0  0  0
 10 31  1  0  0  0  0
 10 32  1  0  0  0  0
 11 13  1  0  0  0  0
 11 12  1  0  0  0  0
 11 10  1  0  0  0  0
 11 33  1  6  0  0  0
 12 34  1  0  0  0  0
 12 35  1  0  0  0  0
 12 36  1  0  0  0  0
 13 14  1  0  0  0  0
 13 15  1  0  0  0  0
 13 37  1  1  0  0  0
 14 38  1  0  0  0  0
 14 39  1  0  0  0  0
 14 40  1  0  0  0  0
 15 41  1  0  0  0  0
M  END
$$$$
