
 OpenBabel10132513253D

 35 36  0  0  1  0  0  0  0  0999 V2000
    1.6997    1.4724   -0.1314 C   0  0  0  0  0  0  0  0  0  0  0  0
    2.3916    0.1166   -0.0834 C   0  0  0  0  0  0  0  0  0  0  0  0
    2.9938   -0.2285    1.3018 C   0  0  2  0  0  0  0  0  0  0  0  0
    4.0423    0.7913    1.7693 C   0  0  0  0  0  0  0  0  0  0  0  0
    5.3094    0.6097    0.9341 C   0  0  1  0  0  0  0  0  0  0  0  0
    6.3384    1.6957    1.2567 C   0  0  0  0  0  0  0  0  0  0  0  0
    7.5911    1.5666    0.4008 C   0  0  0  0  0  0  0  0  0  0  0  0
    5.8759   -0.6863    1.1840 O   0  0  0  0  0  0  0  0  0  0  0  0
    4.9865   -1.7517    1.2177 C   0  0  0  0  0  0  0  0  0  0  0  0
    3.6504   -1.5936    1.2607 C   0  0  0  0  0  0  0  0  0  0  0  0
    2.7634   -2.7831    1.3511 C   0  0  0  0  0  0  0  0  0  0  0  0
    1.5484   -2.6279    1.5025 O   0  0  0  0  0  0  0  0  0  0  0  0
    3.3306   -4.1730    1.2316 C   0  0  0  0  0  0  0  0  0  0  0  0
    4.8400   -4.3297    1.1943 C   0  0  0  0  0  0  0  0  0  0  0  0
    5.6922   -3.0696    1.2295 C   0  0  0  0  0  0  0  0  0  0  0  0
    1.3003    1.6526   -1.1347 H   0  0  0  0  0  0  0  0  0  0  0  0
    2.3851    2.2944    0.0905 H   0  0  0  0  0  0  0  0  0  0  0  0
    0.8686    1.5101    0.5794 H   0  0  0  0  0  0  0  0  0  0  0  0
    3.1626    0.0903   -0.8626 H   0  0  0  0  0  0  0  0  0  0  0  0
    1.6596   -0.6482   -0.3684 H   0  0  0  0  0  0  0  0  0  0  0  0
    2.1855   -0.2269    2.0439 H   0  0  0  0  0  0  0  0  0  0  0  0
    4.2716    0.5984    2.8274 H   0  0  0  0  0  0  0  0  0  0  0  0
    3.6671    1.8168    1.7180 H   0  0  0  0  0  0  0  0  0  0  0  0
    5.0883    0.6752   -0.1368 H   0  0  0  0  0  0  0  0  0  0  0  0
    6.6272    1.6427    2.3126 H   0  0  0  0  0  0  0  0  0  0  0  0
    5.8943    2.6831    1.0823 H   0  0  0  0  0  0  0  0  0  0  0  0
    8.0761    0.5969    0.5466 H   0  0  0  0  0  0  0  0  0  0  0  0
    8.3102    2.3483    0.6636 H   0  0  0  0  0  0  0  0  0  0  0  0
    7.3492    1.6730   -0.6620 H   0  0  0  0  0  0  0  0  0  0  0  0
    2.9062   -4.6102    0.3192 H   0  0  0  0  0  0  0  0  0  0  0  0
    2.9401   -4.7533    2.0754 H   0  0  0  0  0  0  0  0  0  0  0  0
    5.1056   -4.9080    0.2981 H   0  0  0  0  0  0  0  0  0  0  0  0
    5.1448   -4.9782    2.0269 H   0  0  0  0  0  0  0  0  0  0  0  0
    6.3799   -3.0992    0.3725 H   0  0  0  0  0  0  0  0  0  0  0  0
    6.3312   -3.1063    2.1220 H   0  0  0  0  0  0  0  0  0  0  0  0
  1  2  1  0  0  0  0
  1 16  1  0  0  0  0
  1 17  1  0  0  0  0
  1 18  1  0  0  0  0
  2  3  1  0  0  0  0
  2 19  1  0  0  0  0
  2 20  1  0  0  0  0
  3  4  1  0  0  0  0
  3 10  1  0  0  0  0
  3 21  1  1  0  0  0
  4  5  1  0  0  0  0
  4 22  1  0  0  0  0
  4 23  1  0  0  0  0
  5  6  1  0  0  0  0
  5  8  1  0  0  0  0
  5 24  1  6  0  0  0
  6  7  1  0  0  0  0
  6 25  1  0  0  0  0
  6 26  1  0  0  0  0
  7 27  1  0  0  0  0
  7 28  1  0  0  0  0
  7 29  1  0  0  0  0
  8  9  1  0  0  0  0
  9 10  2  0  0  0  0
  9 15  1  0  0  0  0
 10 11  1  0  0  0  0
 11 12  2  0  0  0  0
 11 13  1  0  0  0  0
 13 14  1  0  0  0  0
 13 30  1  0  0  0  0
 13 31  1  0  0  0  0
 14 15  1  0  0  0  0
 14 32  1  0  0  0  0
 14 33  1  0  0  0  0
 15 34  1  0  0  0  0
 15 35  1  0  0  0  0
M  END
$$$$
