
 OpenBabel12162417303D

 19 18  0  0  1  0  0  0  0  0999 V2000
    0.9298   -0.0898   -0.1004 O   0  0  0  0  0  0  0  0  0  0  0  0
    2.3498   -0.0853   -0.0578 C   0  0  0  0  0  0  0  0  0  0  0  0
    2.8682    1.3560    0.0857 C   0  0  1  0  0  0  0  0  0  0  0  0
    2.3284    2.0619    1.3597 C   0  0  1  0  0  0  0  0  0  0  0  0
    2.8437    1.2649    2.9317 S   0  0  0  0  0  0  0  0  0  0  0  0
    2.7155    3.5419    1.4243 C   0  0  0  0  0  0  0  0  0  0  0  0
    4.3948    1.3644   -0.0495 C   0  0  0  0  0  0  0  0  0  0  0  0
    0.6468   -1.0238   -0.0934 H   0  0  0  0  0  0  0  0  0  0  0  0
    2.7102   -0.5278   -0.9929 H   0  0  0  0  0  0  0  0  0  0  0  0
    2.6835   -0.7235    0.7663 H   0  0  0  0  0  0  0  0  0  0  0  0
    2.4655    1.9196   -0.7687 H   0  0  0  0  0  0  0  0  0  0  0  0
    1.2324    2.0164    1.3460 H   0  0  0  0  0  0  0  0  0  0  0  0
    4.1571    1.5007    2.8132 H   0  0  0  0  0  0  0  0  0  0  0  0
    3.7999    3.6926    1.4485 H   0  0  0  0  0  0  0  0  0  0  0  0
    2.2930    4.0263    2.3122 H   0  0  0  0  0  0  0  0  0  0  0  0
    2.3230    4.0753    0.5516 H   0  0  0  0  0  0  0  0  0  0  0  0
    4.8844    0.8315    0.7705 H   0  0  0  0  0  0  0  0  0  0  0  0
    4.7884    2.3842   -0.0820 H   0  0  0  0  0  0  0  0  0  0  0  0
    4.6994    0.8765   -0.9820 H   0  0  0  0  0  0  0  0  0  0  0  0
  1  2  1  0  0  0  0
  1  8  1  0  0  0  0
  2  3  1  0  0  0  0
  2  9  1  0  0  0  0
  2 10  1  0  0  0  0
  3  4  1  0  0  0  0
  3  7  1  0  0  0  0
  3 11  1  6  0  0  0
  4  5  1  0  0  0  0
  4  6  1  0  0  0  0
  4 12  1  6  0  0  0
  5 13  1  0  0  0  0
  6 14  1  0  0  0  0
  6 15  1  0  0  0  0
  6 16  1  0  0  0  0
  7 17  1  0  0  0  0
  7 18  1  0  0  0  0
  7 19  1  0  0  0  0
M  END
$$$$
