
 OpenBabel02132500133D

 26 27  0  0  1  0  0  0  0  0999 V2000
    2.0756   -1.2518    1.8719 C   0  0  0  0  0  0  0  0  0  0  0  0
    2.3455   -0.6965    0.4849 C   0  0  0  0  0  0  0  0  0  0  0  0
    3.1317   -1.6511   -0.2428 O   0  0  0  0  0  0  0  0  0  0  0  0
    4.4765   -1.4948   -0.0935 C   0  0  0  0  0  0  0  0  0  0  0  0
    5.0279   -0.5226    0.4045 O   0  0  0  0  0  0  0  0  0  0  0  0
    5.2656   -2.6633   -0.5198 C   0  0  2  0  0  0  0  0  0  0  0  0
    4.7551   -3.8881   -1.2465 C   0  0  2  0  0  0  0  0  0  0  0  0
    4.9230   -3.8694    0.1819 O   0  0  0  0  0  0  0  0  0  0  0  0
    5.7756   -4.6658   -2.0508 C   0  0  0  0  0  0  0  0  0  0  0  0
    6.5730   -5.6640   -1.4593 C   0  0  0  0  0  0  0  0  0  0  0  0
    7.6161   -6.2764   -2.1597 C   0  0  0  0  0  0  0  0  0  0  0  0
    7.8710   -5.9171   -3.4789 C   0  0  0  0  0  0  0  0  0  0  0  0
    7.0703   -4.9629   -4.1011 C   0  0  0  0  0  0  0  0  0  0  0  0
    6.0323   -4.3476   -3.3936 C   0  0  0  0  0  0  0  0  0  0  0  0
    1.4910   -0.5514    2.4737 H   0  0  0  0  0  0  0  0  0  0  0  0
    3.0129   -1.4692    2.3961 H   0  0  0  0  0  0  0  0  0  0  0  0
    1.5299   -2.1988    1.7997 H   0  0  0  0  0  0  0  0  0  0  0  0
    2.8332    0.2858    0.5416 H   0  0  0  0  0  0  0  0  0  0  0  0
    1.4045   -0.5519   -0.0544 H   0  0  0  0  0  0  0  0  0  0  0  0
    6.3250   -2.4408   -0.6306 H   0  0  0  0  0  0  0  0  0  0  0  0
    3.7315   -3.8900   -1.6087 H   0  0  0  0  0  0  0  0  0  0  0  0
    6.4066   -5.9400   -0.4201 H   0  0  0  0  0  0  0  0  0  0  0  0
    8.2393   -7.0172   -1.6649 H   0  0  0  0  0  0  0  0  0  0  0  0
    8.6960   -6.3750   -4.0184 H   0  0  0  0  0  0  0  0  0  0  0  0
    7.2667   -4.6806   -5.1322 H   0  0  0  0  0  0  0  0  0  0  0  0
    5.4354   -3.5869   -3.8925 H   0  0  0  0  0  0  0  0  0  0  0  0
  1  2  1  0  0  0  0
  1 15  1  0  0  0  0
  1 16  1  0  0  0  0
  1 17  1  0  0  0  0
  2  3  1  0  0  0  0
  2 18  1  0  0  0  0
  2 19  1  0  0  0  0
  3  4  1  0  0  0  0
  4  5  2  0  0  0  0
  4  6  1  0  0  0  0
  6  7  1  0  0  0  0
  6  8  1  0  0  0  0
  6 20  1  6  0  0  0
  7  8  1  0  0  0  0
  7  9  1  0  0  0  0
  7 21  1  6  0  0  0
  9 10  2  0  0  0  0
  9 14  1  0  0  0  0
 10 11  1  0  0  0  0
 10 22  1  0  0  0  0
 11 12  2  0  0  0  0
 11 23  1  0  0  0  0
 12 13  1  0  0  0  0
 12 24  1  0  0  0  0
 13 14  2  0  0  0  0
 13 25  1  0  0  0  0
 14 26  1  0  0  0  0
M  END
$$$$
