
 OpenBabel11112415483D

 41 41  0  0  1  0  0  0  0  0999 V2000
    2.3225    4.6240   -0.3970 C   0  0  0  0  0  0  0  0  0  0  0  0
    3.2262    4.6182   -1.5817 C   0  0  0  0  0  0  0  0  0  0  0  0
    4.4311    5.2005   -1.6471 C   0  0  0  0  0  0  0  0  0  0  0  0
    5.0706    4.9963   -2.9781 C   0  0  0  0  0  0  0  0  0  0  0  0
    4.2704    3.8049   -3.5667 C   0  0  2  0  0  0  0  0  0  0  0  0
    2.8595    3.9411   -2.8914 C   0  0  0  0  0  0  0  0  0  0  0  0
    1.9640    4.8667   -3.7413 C   0  0  0  0  0  0  0  0  0  0  0  0
    2.0943    2.6356   -2.6660 C   0  0  0  0  0  0  0  0  0  0  0  0
    5.0485    2.4897   -3.2947 C   0  0  0  0  0  0  0  0  0  0  0  0
    4.5621    1.2276   -4.0278 C   0  0  0  0  0  0  0  0  0  0  0  0
    4.4412    1.3583   -5.5581 C   0  0  2  0  0  0  0  0  0  0  0  0
    3.6537    0.1632   -6.1147 C   0  0  0  0  0  0  0  0  0  0  0  0
    5.8180    1.5531   -6.2320 C   0  0  1  0  0  0  0  0  0  0  0  0
    6.7726    0.3786   -6.0729 C   0  0  0  0  0  0  0  0  0  0  0  0
    5.6429    1.8321   -7.6202 O   0  0  0  0  0  0  0  0  0  0  0  0
    2.7400    5.2158    0.4239 H   0  0  0  0  0  0  0  0  0  0  0  0
    2.1766    3.6050   -0.0249 H   0  0  0  0  0  0  0  0  0  0  0  0
    1.3481    5.0454   -0.6558 H   0  0  0  0  0  0  0  0  0  0  0  0
    4.8924    5.7654   -0.8485 H   0  0  0  0  0  0  0  0  0  0  0  0
    6.1397    4.7829   -2.8810 H   0  0  0  0  0  0  0  0  0  0  0  0
    4.9557    5.8988   -3.5893 H   0  0  0  0  0  0  0  0  0  0  0  0
    4.2060    3.9581   -4.6487 H   0  0  0  0  0  0  0  0  0  0  0  0
    2.4103    5.8567   -3.8892 H   0  0  0  0  0  0  0  0  0  0  0  0
    0.9851    5.0143   -3.2712 H   0  0  0  0  0  0  0  0  0  0  0  0
    1.7915    4.4316   -4.7319 H   0  0  0  0  0  0  0  0  0  0  0  0
    2.6311    1.9545   -1.9976 H   0  0  0  0  0  0  0  0  0  0  0  0
    1.8862    2.1307   -3.6154 H   0  0  0  0  0  0  0  0  0  0  0  0
    1.1191    2.8208   -2.1985 H   0  0  0  0  0  0  0  0  0  0  0  0
    5.0639    2.2823   -2.2178 H   0  0  0  0  0  0  0  0  0  0  0  0
    6.0989    2.6428   -3.5735 H   0  0  0  0  0  0  0  0  0  0  0  0
    3.6089    0.8916   -3.6189 H   0  0  0  0  0  0  0  0  0  0  0  0
    5.2479    0.4094   -3.7770 H   0  0  0  0  0  0  0  0  0  0  0  0
    3.8260    2.2320   -5.8035 H   0  0  0  0  0  0  0  0  0  0  0  0
    4.1189   -0.7908   -5.8496 H   0  0  0  0  0  0  0  0  0  0  0  0
    3.5598    0.2139   -7.2032 H   0  0  0  0  0  0  0  0  0  0  0  0
    2.6364    0.1589   -5.7057 H   0  0  0  0  0  0  0  0  0  0  0  0
    6.2983    2.4443   -5.8156 H   0  0  0  0  0  0  0  0  0  0  0  0
    6.3493   -0.5469   -6.4788 H   0  0  0  0  0  0  0  0  0  0  0  0
    7.0406    0.2063   -5.0257 H   0  0  0  0  0  0  0  0  0  0  0  0
    7.7004    0.5605   -6.6287 H   0  0  0  0  0  0  0  0  0  0  0  0
    5.3925    1.0048   -8.0677 H   0  0  0  0  0  0  0  0  0  0  0  0
  1  2  1  0  0  0  0
  1 16  1  0  0  0  0
  1 17  1  0  0  0  0
  1 18  1  0  0  0  0
  2  3  2  0  0  0  0
  2  6  1  0  0  0  0
  3  4  1  0  0  0  0
  3 19  1  0  0  0  0
  4  5  1  0  0  0  0
  4 20  1  0  0  0  0
  4 21  1  0  0  0  0
  5  6  1  0  0  0  0
  5  9  1  0  0  0  0
  5 22  1  6  0  0  0
  6  7  1  0  0  0  0
  6  8  1  0  0  0  0
  7 23  1  0  0  0  0
  7 24  1  0  0  0  0
  7 25  1  0  0  0  0
  8 26  1  0  0  0  0
  8 27  1  0  0  0  0
  8 28  1  0  0  0  0
  9 10  1  0  0  0  0
  9 29  1  0  0  0  0
  9 30  1  0  0  0  0
 10 31  1  0  0  0  0
 10 32  1  0  0  0  0
 11 13  1  0  0  0  0
 11 12  1  0  0  0  0
 11 10  1  0  0  0  0
 11 33  1  6  0  0  0
 12 34  1  0  0  0  0
 12 35  1  0  0  0  0
 12 36  1  0  0  0  0
 13 14  1  0  0  0  0
 13 15  1  0  0  0  0
 13 37  1  1  0  0  0
 14 38  1  0  0  0  0
 14 39  1  0  0  0  0
 14 40  1  0  0  0  0
 15 41  1  0  0  0  0
M  END
$$$$
