
 OpenBabel01032519083D

 52 52  0  0  1  0  0  0  0  0999 V2000
    3.2826    4.1027    6.1847 C   0  0  0  0  0  0  0  0  0  0  0  0
    3.4932    2.8725    5.3188 C   0  0  0  0  0  0  0  0  0  0  0  0
    3.7101    3.2474    3.8729 C   0  0  0  0  0  0  0  0  0  0  0  0
    3.2566    4.2485    3.3484 O   0  0  0  0  0  0  0  0  0  0  0  0
    4.4186    2.2702    3.2466 O   0  0  0  0  0  0  0  0  0  0  0  0
    4.6102    2.4418    1.8340 C   0  0  0  0  0  0  0  0  0  0  0  0
    6.1126    2.3360    1.4471 C   0  0  0  0  0  0  0  0  0  0  0  0
    6.6295    0.9434    1.8537 C   0  0  0  0  0  0  0  0  0  0  0  0
    6.1507    2.4399   -0.0868 C   0  0  0  0  0  0  0  0  0  0  0  0
    6.7884    3.4346    2.1198 O   0  0  0  0  0  0  0  0  0  0  0  0
    8.2142    3.6181    2.0068 C   0  0  1  0  0  0  0  0  0  0  0  0
    8.5745    4.1052    0.5983 C   0  0  0  0  0  0  0  0  0  0  0  0
    8.7305    4.6355    3.1029 C   0  0  2  0  0  0  0  0  0  0  0  0
   10.2566    4.8433    3.0498 C   0  0  0  0  0  0  0  0  0  0  0  0
   11.0000    3.5527    3.3635 C   0  0  0  0  0  0  0  0  0  0  0  0
   10.5776    2.8917    4.6787 C   0  0  0  0  0  0  0  0  0  0  0  0
    9.0956    3.0144    5.1381 C   0  0  0  0  0  0  0  0  0  0  0  0
    8.4204    4.3036    4.5926 C   0  0  0  0  0  0  0  0  0  0  0  0
    8.2362    1.8008    4.7444 C   0  0  0  0  0  0  0  0  0  0  0  0
    9.1011    3.0039    6.6849 C   0  0  0  0  0  0  0  0  0  0  0  0
    3.1016    3.8144    7.2246 H   0  0  0  0  0  0  0  0  0  0  0  0
    2.4236    4.6876    5.8391 H   0  0  0  0  0  0  0  0  0  0  0  0
    4.1629    4.7527    6.1536 H   0  0  0  0  0  0  0  0  0  0  0  0
    2.6143    2.2206    5.3684 H   0  0  0  0  0  0  0  0  0  0  0  0
    4.3612    2.3183    5.6922 H   0  0  0  0  0  0  0  0  0  0  0  0
    4.2108    3.3983    1.4782 H   0  0  0  0  0  0  0  0  0  0  0  0
    4.0364    1.6455    1.3464 H   0  0  0  0  0  0  0  0  0  0  0  0
    6.1547    0.1565    1.2575 H   0  0  0  0  0  0  0  0  0  0  0  0
    6.4103    0.7127    2.9000 H   0  0  0  0  0  0  0  0  0  0  0  0
    7.7106    0.8500    1.7162 H   0  0  0  0  0  0  0  0  0  0  0  0
    5.3802    1.8099   -0.5474 H   0  0  0  0  0  0  0  0  0  0  0  0
    7.0995    2.0810   -0.4930 H   0  0  0  0  0  0  0  0  0  0  0  0
    5.9912    3.4680   -0.4242 H   0  0  0  0  0  0  0  0  0  0  0  0
    8.7129    2.6621    2.1701 H   0  0  0  0  0  0  0  0  0  0  0  0
    7.7977    4.7557    0.1870 H   0  0  0  0  0  0  0  0  0  0  0  0
    8.6936    3.2474   -0.0678 H   0  0  0  0  0  0  0  0  0  0  0  0
    9.5253    4.6308    0.5302 H   0  0  0  0  0  0  0  0  0  0  0  0
    8.2463    5.6007    2.8978 H   0  0  0  0  0  0  0  0  0  0  0  0
   10.5494    5.6167    3.7732 H   0  0  0  0  0  0  0  0  0  0  0  0
   10.5892    5.2353    2.0849 H   0  0  0  0  0  0  0  0  0  0  0  0
   12.0746    3.7736    3.4139 H   0  0  0  0  0  0  0  0  0  0  0  0
   10.8875    2.8439    2.5364 H   0  0  0  0  0  0  0  0  0  0  0  0
   11.2154    3.3417    5.4514 H   0  0  0  0  0  0  0  0  0  0  0  0
   10.8768    1.8366    4.6469 H   0  0  0  0  0  0  0  0  0  0  0  0
    8.7855    5.1502    5.1964 H   0  0  0  0  0  0  0  0  0  0  0  0
    7.3365    4.2823    4.7588 H   0  0  0  0  0  0  0  0  0  0  0  0
    7.6341    2.0169    3.8805 H   0  0  0  0  0  0  0  0  0  0  0  0
    7.5080    1.5483    5.5248 H   0  0  0  0  0  0  0  0  0  0  0  0
    8.8284    0.9068    4.5399 H   0  0  0  0  0  0  0  0  0  0  0  0
    9.7204    3.8076    7.0992 H   0  0  0  0  0  0  0  0  0  0  0  0
    9.5006    2.0528    7.0555 H   0  0  0  0  0  0  0  0  0  0  0  0
    8.0894    3.1199    7.0944 H   0  0  0  0  0  0  0  0  0  0  0  0
  1  2  1  0  0  0  0
  1 21  1  0  0  0  0
  1 22  1  0  0  0  0
  1 23  1  0  0  0  0
  2  3  1  0  0  0  0
  2 24  1  0  0  0  0
  2 25  1  0  0  0  0
  3  4  2  0  0  0  0
  3  5  1  0  0  0  0
  5  6  1  0  0  0  0
  6  7  1  0  0  0  0
  6 26  1  0  0  0  0
  6 27  1  0  0  0  0
  7  8  1  0  0  0  0
  7  9  1  0  0  0  0
  7 10  1  0  0  0  0
  8 28  1  0  0  0  0
  8 29  1  0  0  0  0
  8 30  1  0  0  0  0
  9 31  1  0  0  0  0
  9 32  1  0  0  0  0
  9 33  1  0  0  0  0
 10 11  1  0  0  0  0
 11 12  1  0  0  0  0
 11 13  1  0  0  0  0
 11 34  1  1  0  0  0
 12 35  1  0  0  0  0
 12 36  1  0  0  0  0
 12 37  1  0  0  0  0
 13 14  1  0  0  0  0
 13 18  1  0  0  0  0
 13 38  1  6  0  0  0
 14 15  1  0  0  0  0
 14 39  1  0  0  0  0
 14 40  1  0  0  0  0
 15 16  1  0  0  0  0
 15 41  1  0  0  0  0
 15 42  1  0  0  0  0
 16 17  1  0  0  0  0
 16 43  1  0  0  0  0
 16 44  1  0  0  0  0
 17 18  1  0  0  0  0
 17 19  1  0  0  0  0
 17 20  1  0  0  0  0
 18 45  1  0  0  0  0
 18 46  1  0  0  0  0
 19 47  1  0  0  0  0
 19 48  1  0  0  0  0
 19 49  1  0  0  0  0
 20 50  1  0  0  0  0
 20 51  1  0  0  0  0
 20 52  1  0  0  0  0
M  END
$$$$
