
 OpenBabel01022513183D

 34 34  0  0  1  0  0  0  0  0999 V2000
    1.1004   -0.1832    0.3433 C   0  0  0  0  0  0  0  0  0  0  0  0
    2.6451   -0.1743    0.1756 C   0  0  0  0  0  0  0  0  0  0  0  0
    3.2350   -0.4194    1.5903 C   0  0  0  0  0  0  0  0  0  0  0  0
    3.0058   -1.4222   -0.6848 C   0  0  0  0  0  0  0  0  0  0  0  0
    3.9361   -1.2353   -1.8251 C   0  0  0  0  0  0  0  0  0  0  0  0
    4.2856   -0.0488   -2.3190 C   0  0  0  0  0  0  0  0  0  0  0  0
    3.8017    1.2646   -1.7932 C   0  0  1  0  0  0  0  0  0  0  0  0
    2.9305    1.9249   -2.8740 C   0  0  0  0  0  0  0  0  0  0  0  0
    3.0449    1.2354   -0.4291 C   0  0  2  0  0  0  0  0  0  0  0  0
    3.7776    2.1473    0.5788 C   0  0  0  0  0  0  0  0  0  0  0  0
    4.9985    2.3185    0.5680 O   0  0  0  0  0  0  0  0  0  0  0  0
    2.9384    2.7948    1.6389 C   0  0  0  0  0  0  0  0  0  0  0  0
    3.5091    3.3488    2.7193 C   0  0  0  0  0  0  0  0  0  0  0  0
    2.7444    3.8501    3.8996 C   0  0  0  0  0  0  0  0  0  0  0  0
    0.7513   -1.1201    0.7919 H   0  0  0  0  0  0  0  0  0  0  0  0
    0.6043   -0.0733   -0.6286 H   0  0  0  0  0  0  0  0  0  0  0  0
    0.7583    0.6357    0.9848 H   0  0  0  0  0  0  0  0  0  0  0  0
    2.9905   -1.4250    1.9537 H   0  0  0  0  0  0  0  0  0  0  0  0
    2.8234    0.2657    2.3375 H   0  0  0  0  0  0  0  0  0  0  0  0
    4.3263   -0.3286    1.5890 H   0  0  0  0  0  0  0  0  0  0  0  0
    2.0969   -1.8871   -1.0894 H   0  0  0  0  0  0  0  0  0  0  0  0
    3.4542   -2.1962   -0.0475 H   0  0  0  0  0  0  0  0  0  0  0  0
    4.3240   -2.1372   -2.2944 H   0  0  0  0  0  0  0  0  0  0  0  0
    4.9604   -0.0194   -3.1718 H   0  0  0  0  0  0  0  0  0  0  0  0
    4.6958    1.8950   -1.7134 H   0  0  0  0  0  0  0  0  0  0  0  0
    2.0085    1.3580   -3.0454 H   0  0  0  0  0  0  0  0  0  0  0  0
    3.4652    1.9935   -3.8289 H   0  0  0  0  0  0  0  0  0  0  0  0
    2.6559    2.9431   -2.5795 H   0  0  0  0  0  0  0  0  0  0  0  0
    2.1074    1.7810   -0.6125 H   0  0  0  0  0  0  0  0  0  0  0  0
    1.8635    2.7073    1.5451 H   0  0  0  0  0  0  0  0  0  0  0  0
    4.5949    3.4031    2.7904 H   0  0  0  0  0  0  0  0  0  0  0  0
    1.6868    3.5708    3.8531 H   0  0  0  0  0  0  0  0  0  0  0  0
    2.8178    4.9385    3.9695 H   0  0  0  0  0  0  0  0  0  0  0  0
    3.1609    3.4168    4.8152 H   0  0  0  0  0  0  0  0  0  0  0  0
  1  2  1  0  0  0  0
  1 15  1  0  0  0  0
  1 16  1  0  0  0  0
  1 17  1  0  0  0  0
  2  3  1  0  0  0  0
  2  4  1  0  0  0  0
  2  9  1  0  0  0  0
  3 18  1  0  0  0  0
  3 19  1  0  0  0  0
  3 20  1  0  0  0  0
  4  5  1  0  0  0  0
  4 21  1  0  0  0  0
  4 22  1  0  0  0  0
  5  6  2  0  0  0  0
  5 23  1  0  0  0  0
  6  7  1  0  0  0  0
  6 24  1  0  0  0  0
  7  9  1  0  0  0  0
  7  8  1  0  0  0  0
  7 25  1  1  0  0  0
  8 26  1  0  0  0  0
  8 27  1  0  0  0  0
  8 28  1  0  0  0  0
  9 10  1  0  0  0  0
  9 29  1  6  0  0  0
 10 11  2  0  0  0  0
 10 12  1  0  0  0  0
 12 13  2  0  0  0  0
 12 30  1  0  0  0  0
 13 14  1  0  0  0  0
 13 31  1  0  0  0  0
 14 32  1  0  0  0  0
 14 33  1  0  0  0  0
 14 34  1  0  0  0  0
M  END
$$$$
