
 OpenBabel01022513183D

 34 34  0  0  1  0  0  0  0  0999 V2000
    1.0853   -0.6246    0.7164 C   0  0  0  0  0  0  0  0  0  0  0  0
    2.5130   -0.2778    0.2144 C   0  0  0  0  0  0  0  0  0  0  0  0
    3.3833   -0.1839    1.5045 C   0  0  0  0  0  0  0  0  0  0  0  0
    2.9856   -1.5098   -0.5975 C   0  0  0  0  0  0  0  0  0  0  0  0
    3.9642   -1.2664   -1.6891 C   0  0  0  0  0  0  0  0  0  0  0  0
    4.1950   -0.0683   -2.2295 C   0  0  0  0  0  0  0  0  0  0  0  0
    3.5253    1.2031   -1.8036 C   0  0  1  0  0  0  0  0  0  0  0  0
    2.8560    1.8313   -3.0391 C   0  0  0  0  0  0  0  0  0  0  0  0
    2.6321    1.1261   -0.5223 C   0  0  1  0  0  0  0  0  0  0  0  0
    1.3194    1.9135   -0.6870 C   0  0  0  0  0  0  0  0  0  0  0  0
    0.2904    1.4085   -1.1375 O   0  0  0  0  0  0  0  0  0  0  0  0
    1.2696    3.3816   -0.3717 C   0  0  0  0  0  0  0  0  0  0  0  0
    2.3109    4.1895   -0.1080 C   0  0  0  0  0  0  0  0  0  0  0  0
    2.1679    5.6597    0.1290 C   0  0  0  0  0  0  0  0  0  0  0  0
    1.0881   -1.5772    1.2614 H   0  0  0  0  0  0  0  0  0  0  0  0
    0.3875   -0.7581   -0.1174 H   0  0  0  0  0  0  0  0  0  0  0  0
    0.6871    0.1373    1.3926 H   0  0  0  0  0  0  0  0  0  0  0  0
    3.3237   -1.1008    2.1013 H   0  0  0  0  0  0  0  0  0  0  0  0
    3.0411    0.6374    2.1476 H   0  0  0  0  0  0  0  0  0  0  0  0
    4.4348   -0.0080    1.2583 H   0  0  0  0  0  0  0  0  0  0  0  0
    2.1326   -2.0329   -1.0461 H   0  0  0  0  0  0  0  0  0  0  0  0
    3.4444   -2.2378    0.0863 H   0  0  0  0  0  0  0  0  0  0  0  0
    4.4754   -2.1365   -2.0952 H   0  0  0  0  0  0  0  0  0  0  0  0
    4.9060   -0.0032   -3.0490 H   0  0  0  0  0  0  0  0  0  0  0  0
    4.3563    1.8770   -1.5495 H   0  0  0  0  0  0  0  0  0  0  0  0
    1.9332    1.3104   -3.3155 H   0  0  0  0  0  0  0  0  0  0  0  0
    3.5203    1.8036   -3.9116 H   0  0  0  0  0  0  0  0  0  0  0  0
    2.6242    2.8879   -2.8686 H   0  0  0  0  0  0  0  0  0  0  0  0
    3.1867    1.7353    0.2044 H   0  0  0  0  0  0  0  0  0  0  0  0
    0.2603    3.7844   -0.4071 H   0  0  0  0  0  0  0  0  0  0  0  0
    3.3303    3.8197   -0.0893 H   0  0  0  0  0  0  0  0  0  0  0  0
    1.1951    6.0391   -0.1993 H   0  0  0  0  0  0  0  0  0  0  0  0
    2.9399    6.1998   -0.4291 H   0  0  0  0  0  0  0  0  0  0  0  0
    2.2939    5.8851    1.1916 H   0  0  0  0  0  0  0  0  0  0  0  0
  1  2  1  0  0  0  0
  1 15  1  0  0  0  0
  1 16  1  0  0  0  0
  1 17  1  0  0  0  0
  2  3  1  0  0  0  0
  2  4  1  0  0  0  0
  2  9  1  0  0  0  0
  3 18  1  0  0  0  0
  3 19  1  0  0  0  0
  3 20  1  0  0  0  0
  4  5  1  0  0  0  0
  4 21  1  0  0  0  0
  4 22  1  0  0  0  0
  5  6  2  0  0  0  0
  5 23  1  0  0  0  0
  6  7  1  0  0  0  0
  6 24  1  0  0  0  0
  7  9  1  0  0  0  0
  7  8  1  0  0  0  0
  7 25  1  1  0  0  0
  8 26  1  0  0  0  0
  8 27  1  0  0  0  0
  8 28  1  0  0  0  0
  9 10  1  0  0  0  0
  9 29  1  1  0  0  0
 10 11  2  0  0  0  0
 10 12  1  0  0  0  0
 12 13  2  0  0  0  0
 12 30  1  0  0  0  0
 13 14  1  0  0  0  0
 13 31  1  0  0  0  0
 14 32  1  0  0  0  0
 14 33  1  0  0  0  0
 14 34  1  0  0  0  0
M  END
$$$$
