
 OpenBabel09152403303D

 23 23  0  0  0  0  0  0  0  0999 V2000
    1.0316    0.8109   -2.0464 C   0  0  0  0  0  0  0  0  0  0  0  0
    2.5179    0.6986   -2.1227 C   0  0  0  0  0  0  0  0  0  0  0  0
    3.2873    0.3022   -1.0954 C   0  0  0  0  0  0  0  0  0  0  0  0
    4.7548    0.2153   -1.1609 C   0  0  0  0  0  0  0  0  0  0  0  0
    5.5123    1.1117   -1.9239 C   0  0  0  0  0  0  0  0  0  0  0  0
    6.9049    1.0146   -1.9610 C   0  0  0  0  0  0  0  0  0  0  0  0
    7.5668    0.0455   -1.2103 C   0  0  0  0  0  0  0  0  0  0  0  0
    6.8254   -0.8447   -0.4346 C   0  0  0  0  0  0  0  0  0  0  0  0
    5.4265   -0.7540   -0.4070 C   0  0  0  0  0  0  0  0  0  0  0  0
    8.9272    0.0389   -1.3469 O   0  0  0  0  0  0  0  0  0  0  0  0
    9.6567   -0.4416   -0.2247 C   0  0  0  0  0  0  0  0  0  0  0  0
    0.6350    1.1148   -3.0213 H   0  0  0  0  0  0  0  0  0  0  0  0
    0.7366    1.5711   -1.3169 H   0  0  0  0  0  0  0  0  0  0  0  0
    0.5746   -0.1474   -1.7838 H   0  0  0  0  0  0  0  0  0  0  0  0
    2.9637    0.9552   -3.0804 H   0  0  0  0  0  0  0  0  0  0  0  0
    2.8305    0.0190   -0.1500 H   0  0  0  0  0  0  0  0  0  0  0  0
    5.0320    1.9015   -2.4952 H   0  0  0  0  0  0  0  0  0  0  0  0
    7.4765    1.7100   -2.5697 H   0  0  0  0  0  0  0  0  0  0  0  0
    7.3028   -1.6318    0.1387 H   0  0  0  0  0  0  0  0  0  0  0  0
    4.8657   -1.4644    0.1991 H   0  0  0  0  0  0  0  0  0  0  0  0
   10.7174   -0.2487   -0.4138 H   0  0  0  0  0  0  0  0  0  0  0  0
    9.5343   -1.5214   -0.1007 H   0  0  0  0  0  0  0  0  0  0  0  0
    9.3758    0.0961    0.6873 H   0  0  0  0  0  0  0  0  0  0  0  0
  1  2  1  0  0  0  0
  1 12  1  0  0  0  0
  1 13  1  0  0  0  0
  1 14  1  0  0  0  0
  2  3  2  0  0  0  0
  2 15  1  0  0  0  0
  3  4  1  0  0  0  0
  3 16  1  0  0  0  0
  4  5  2  0  0  0  0
  4  9  1  0  0  0  0
  5  6  1  0  0  0  0
  5 17  1  0  0  0  0
  6  7  2  0  0  0  0
  6 18  1  0  0  0  0
  7  8  1  0  0  0  0
  7 10  1  0  0  0  0
  8  9  2  0  0  0  0
  8 19  1  0  0  0  0
  9 20  1  0  0  0  0
 10 11  1  0  0  0  0
 11 21  1  0  0  0  0
 11 22  1  0  0  0  0
 11 23  1  0  0  0  0
M  END
$$$$
