
 OpenBabel10062413403D

 27 26  0  0  0  0  0  0  0  0999 V2000
    1.0578   -0.2107    0.1201 C   0  0  0  0  0  0  0  0  0  0  0  0
    2.5549   -0.0636    0.0642 C   0  0  0  0  0  0  0  0  0  0  0  0
    3.1888    1.0667   -0.3104 C   0  0  0  0  0  0  0  0  0  0  0  0
    2.4812    2.3340   -0.7111 C   0  0  0  0  0  0  0  0  0  0  0  0
    3.4219    3.5068   -1.0344 C   0  0  0  0  0  0  0  0  0  0  0  0
    2.6552    4.7648   -1.4095 C   0  0  0  0  0  0  0  0  0  0  0  0
    2.7959    5.3111   -2.6344 C   0  0  0  0  0  0  0  0  0  0  0  0
    2.0859    6.5272   -3.0880 C   0  0  0  0  0  0  0  0  0  0  0  0
    2.2600    6.9798   -4.2151 O   0  0  0  0  0  0  0  0  0  0  0  0
    1.7648    5.3513   -0.3458 C   0  0  0  0  0  0  0  0  0  0  0  0
    3.3344   -1.2885    0.4596 C   0  0  0  0  0  0  0  0  0  0  0  0
    0.5232    0.6984   -0.1678 H   0  0  0  0  0  0  0  0  0  0  0  0
    0.7422   -0.4658    1.1369 H   0  0  0  0  0  0  0  0  0  0  0  0
    0.7330   -1.0068   -0.5576 H   0  0  0  0  0  0  0  0  0  0  0  0
    4.2774    1.0790   -0.3220 H   0  0  0  0  0  0  0  0  0  0  0  0
    1.8179    2.6233    0.1123 H   0  0  0  0  0  0  0  0  0  0  0  0
    1.8591    2.1319   -1.5907 H   0  0  0  0  0  0  0  0  0  0  0  0
    4.0955    3.2104   -1.8476 H   0  0  0  0  0  0  0  0  0  0  0  0
    4.0626    3.7292   -0.1721 H   0  0  0  0  0  0  0  0  0  0  0  0
    3.4497    4.8762   -3.3830 H   0  0  0  0  0  0  0  0  0  0  0  0
    1.3950    7.0014   -2.3732 H   0  0  0  0  0  0  0  0  0  0  0  0
    1.8457    4.8059    0.5994 H   0  0  0  0  0  0  0  0  0  0  0  0
    0.7161    5.3113   -0.6598 H   0  0  0  0  0  0  0  0  0  0  0  0
    2.0407    6.3890   -0.1333 H   0  0  0  0  0  0  0  0  0  0  0  0
    2.6654   -2.1163    0.7220 H   0  0  0  0  0  0  0  0  0  0  0  0
    3.9599   -1.0842    1.3345 H   0  0  0  0  0  0  0  0  0  0  0  0
    3.9681   -1.6291   -0.3653 H   0  0  0  0  0  0  0  0  0  0  0  0
  1  2  1  0  0  0  0
  1 12  1  0  0  0  0
  1 13  1  0  0  0  0
  1 14  1  0  0  0  0
  2  3  2  0  0  0  0
  2 11  1  0  0  0  0
  3  4  1  0  0  0  0
  3 15  1  0  0  0  0
  4  5  1  0  0  0  0
  4 16  1  0  0  0  0
  4 17  1  0  0  0  0
  5  6  1  0  0  0  0
  5 18  1  0  0  0  0
  5 19  1  0  0  0  0
  6  7  2  0  0  0  0
  6 10  1  0  0  0  0
  7  8  1  0  0  0  0
  7 20  1  0  0  0  0
  8  9  2  0  0  0  0
  8 21  1  0  0  0  0
 10 22  1  0  0  0  0
 10 23  1  0  0  0  0
 10 24  1  0  0  0  0
 11 25  1  0  0  0  0
 11 26  1  0  0  0  0
 11 27  1  0  0  0  0
M  END
$$$$
