
 OpenBabel01032513333D

 20 19  0  0  0  0  0  0  0  0999 V2000
    1.0324    0.0463    0.0874 C   0  0  0  0  0  0  0  0  0  0  0  0
    2.5521    0.0494    0.0629 C   0  0  0  0  0  0  0  0  0  0  0  0
    3.0866    0.2867   -1.3498 C   0  0  0  0  0  0  0  0  0  0  0  0
    4.6160    0.2891   -1.3678 C   0  0  0  0  0  0  0  0  0  0  0  0
    5.1498    0.5041   -2.7561 C   0  0  0  0  0  0  0  0  0  0  0  0
    5.9313   -0.3886   -3.3796 C   0  0  0  0  0  0  0  0  0  0  0  0
    6.4429   -0.1392   -4.7415 C   0  0  0  0  0  0  0  0  0  0  0  0
    7.1584   -0.9539   -5.3100 O   0  0  0  0  0  0  0  0  0  0  0  0
    0.6694   -0.1252    1.1055 H   0  0  0  0  0  0  0  0  0  0  0  0
    0.6321   -0.7451   -0.5543 H   0  0  0  0  0  0  0  0  0  0  0  0
    0.6334    1.0049   -0.2593 H   0  0  0  0  0  0  0  0  0  0  0  0
    2.9199   -0.9105    0.4440 H   0  0  0  0  0  0  0  0  0  0  0  0
    2.9224    0.8298    0.7379 H   0  0  0  0  0  0  0  0  0  0  0  0
    2.7083    1.2446   -1.7289 H   0  0  0  0  0  0  0  0  0  0  0  0
    2.7082   -0.4952   -2.0203 H   0  0  0  0  0  0  0  0  0  0  0  0
    4.9877   -0.6572   -0.9552 H   0  0  0  0  0  0  0  0  0  0  0  0
    4.9945    1.0888   -0.7205 H   0  0  0  0  0  0  0  0  0  0  0  0
    4.8786    1.4405   -3.2413 H   0  0  0  0  0  0  0  0  0  0  0  0
    6.2280   -1.3281   -2.9277 H   0  0  0  0  0  0  0  0  0  0  0  0
    6.1460    0.8139   -5.2112 H   0  0  0  0  0  0  0  0  0  0  0  0
  1  2  1  0  0  0  0
  1  9  1  0  0  0  0
  1 10  1  0  0  0  0
  1 11  1  0  0  0  0
  2  3  1  0  0  0  0
  2 12  1  0  0  0  0
  2 13  1  0  0  0  0
  3  4  1  0  0  0  0
  3 14  1  0  0  0  0
  3 15  1  0  0  0  0
  4  5  1  0  0  0  0
  4 16  1  0  0  0  0
  4 17  1  0  0  0  0
  5  6  2  0  0  0  0
  5 18  1  0  0  0  0
  6  7  1  0  0  0  0
  6 19  1  0  0  0  0
  7  8  2  0  0  0  0
  7 20  1  0  0  0  0
M  END
$$$$
