
 OpenBabel09142502293D

 26 25  0  0  0  0  0  0  0  0999 V2000
    0.8914   -0.0672   -0.0301 C   0  0  0  0  0  0  0  0  0  0  0  0
    2.4111   -0.0645   -0.0152 C   0  0  0  0  0  0  0  0  0  0  0  0
    2.9441    0.3671    1.3484 C   0  0  0  0  0  0  0  0  0  0  0  0
    4.4710    0.3745    1.3718 C   0  0  0  0  0  0  0  0  0  0  0  0
    4.9934    0.8084    2.7430 C   0  0  0  0  0  0  0  0  0  0  0  0
    6.5201    0.8166    2.7676 C   0  0  0  0  0  0  0  0  0  0  0  0
    7.0547    1.2455    4.1040 C   0  0  0  0  0  0  0  0  0  0  0  0
    7.8391    2.3214    4.2445 C   0  0  0  0  0  0  0  0  0  0  0  0
    8.3546    2.7211    5.5667 C   0  0  0  0  0  0  0  0  0  0  0  0
    9.0688    3.7039    5.6985 O   0  0  0  0  0  0  0  0  0  0  0  0
    0.5214   -0.3780   -1.0121 H   0  0  0  0  0  0  0  0  0  0  0  0
    0.4970    0.9315    0.1829 H   0  0  0  0  0  0  0  0  0  0  0  0
    0.4948   -0.7595    0.7191 H   0  0  0  0  0  0  0  0  0  0  0  0
    2.7797    0.6145   -0.7930 H   0  0  0  0  0  0  0  0  0  0  0  0
    2.7774   -1.0685   -0.2592 H   0  0  0  0  0  0  0  0  0  0  0  0
    2.5688   -0.3134    2.1226 H   0  0  0  0  0  0  0  0  0  0  0  0
    2.5689    1.3693    1.5900 H   0  0  0  0  0  0  0  0  0  0  0  0
    4.8487    1.0557    0.5995 H   0  0  0  0  0  0  0  0  0  0  0  0
    4.8488   -0.6271    1.1322 H   0  0  0  0  0  0  0  0  0  0  0  0
    4.6112    0.1265    3.5126 H   0  0  0  0  0  0  0  0  0  0  0  0
    4.6114    1.8092    2.9800 H   0  0  0  0  0  0  0  0  0  0  0  0
    6.8900    1.4882    1.9824 H   0  0  0  0  0  0  0  0  0  0  0  0
    6.9007   -0.1851    2.5364 H   0  0  0  0  0  0  0  0  0  0  0  0
    6.7844    0.6356    4.9643 H   0  0  0  0  0  0  0  0  0  0  0  0
    8.1327    2.9488    3.4089 H   0  0  0  0  0  0  0  0  0  0  0  0
    8.0604    2.0893    6.4203 H   0  0  0  0  0  0  0  0  0  0  0  0
  1  2  1  0  0  0  0
  1 11  1  0  0  0  0
  1 12  1  0  0  0  0
  1 13  1  0  0  0  0
  2  3  1  0  0  0  0
  2 14  1  0  0  0  0
  2 15  1  0  0  0  0
  3  4  1  0  0  0  0
  3 16  1  0  0  0  0
  3 17  1  0  0  0  0
  4  5  1  0  0  0  0
  4 18  1  0  0  0  0
  4 19  1  0  0  0  0
  5  6  1  0  0  0  0
  5 20  1  0  0  0  0
  5 21  1  0  0  0  0
  6  7  1  0  0  0  0
  6 22  1  0  0  0  0
  6 23  1  0  0  0  0
  7  8  2  0  0  0  0
  7 24  1  0  0  0  0
  8  9  1  0  0  0  0
  8 25  1  0  0  0  0
  9 10  2  0  0  0  0
  9 26  1  0  0  0  0
M  END
$$$$
