Test
 OpenBabel07242506093D

 27 27  0     0  0  0  0  0  0999 V2000
    5.0981   -2.2530   -2.1014 C   0  0  0  0  0  0  0  0  0  0  0  0
    4.6085   -2.0824   -0.6513 C   0  0  0  0  0  0  0  0  0  0  0  0
    5.1305   -0.7703   -0.0369 C   0  0  0  0  0  0  0  0  0  0  0  0
    4.6641   -0.5809    1.4182 C   0  0  0  0  0  0  0  0  0  0  0  0
    5.0141    0.8514    1.8625 C   0  0  0  0  0  0  0  0  0  0  0  0
    4.7562    1.0278    3.3705 C   0  0  0  0  0  0  0  0  0  0  0  0
    4.7079    0.0229    4.2556 C   0  0  0  0  0  0  0  0  0  0  0  0
    4.8874   -1.4357    3.7953 C   0  0  0  0  0  0  0  0  0  0  0  0
    5.0535   -2.3046    4.6062 O   0  0  0  0  0  0  0  0  0  0  0  0
    5.2602   -1.6771    2.3208 C   0  0  0  0  0  0  0  0  0  0  0  0
    4.6352    2.4839    3.8572 C   0  0  0  0  0  0  0  0  0  0  0  0
    4.7084   -3.1885   -2.5027 H   0  0  0  0  0  0  0  0  0  0  0  0
    6.1877   -2.2764   -2.1175 H   0  0  0  0  0  0  0  0  0  0  0  0
    4.7435   -1.4217   -2.7109 H   0  0  0  0  0  0  0  0  0  0  0  0
    4.9712   -2.9261   -0.0642 H   0  0  0  0  0  0  0  0  0  0  0  0
    3.5186   -2.0785   -0.6397 H   0  0  0  0  0  0  0  0  0  0  0  0
    4.7676    0.0659   -0.6345 H   0  0  0  0  0  0  0  0  0  0  0  0
    6.2204   -0.7788   -0.0517 H   0  0  0  0  0  0  0  0  0  0  0  0
    3.5808   -0.6959    1.3840 H   0  0  0  0  0  0  0  0  0  0  0  0
    4.4175    1.5734    1.3050 H   0  0  0  0  0  0  0  0  0  0  0  0
    6.0713    1.0211    1.6587 H   0  0  0  0  0  0  0  0  0  0  0  0
    4.5335    0.2446    5.3084 H   0  0  0  0  0  0  0  0  0  0  0  0
    4.8646   -2.6465    2.0176 H   0  0  0  0  0  0  0  0  0  0  0  0
    6.3455   -1.6802    2.2203 H   0  0  0  0  0  0  0  0  0  0  0  0
    4.6590    3.1566    2.9998 H   0  0  0  0  0  0  0  0  0  0  0  0
    5.4427    2.7414    4.5425 H   0  0  0  0  0  0  0  0  0  0  0  0
    3.6794    2.5845    4.3714 H   0  0  0  0  0  0  0  0  0  0  0  0
  1  2 1.00  0  0  0  0
  1 12 1.00  0  0  0  0
  1 13 1.00  0  0  0  0
  1 14 1.00  0  0  0  0
  2  3 1.00  0  0  0  0
  2 15 1.00  0  0  0  0
  2 16 1.00  0  0  0  0
  3 17 1.00  0  0  0  0
  3 18 1.00  0  0  0  0
  3  4 1.00  0  0  0  0
  4  5 1.00  0  0  0  0
  4 10 1.00  0  0  0  0
  4 19 1.00  0  0  0  0
  5  6 1.00  0  0  0  0
  5 20 1.00  0  0  0  0
  5 21 1.00  0  0  0  0
  6  7 2.00  0  0  0  0
  6 11 1.00  0  0  0  0
  7 22 1.00  0  0  0  0
  8  7 1.00  0  0  0  0
  8  9 2.00  0  0  0  0
  8 10 1.00  0  0  0  0
 10 23 1.00  0  0  0  0
 10 24 1.00  0  0  0  0
 11 25 1.00  0  0  0  0
 11 26 1.00  0  0  0  0
 11 27 1.00  0  0  0  0
M  END

