Test
 OpenBabel06252509053D

 26 27  0     0  0  0  0  0  0999 V2000
    2.0088   -1.8879   -1.5271 C   0  0  0  0  0  0  0  0  0  0  0  0
    1.1264   -1.4146   -0.3571 C   0  0  0  0  0  0  0  0  0  0  0  0
   -0.3503   -1.8226   -0.5140 C   0  0  0  0  0  0  0  0  0  0  0  0
   -0.5580   -3.3443   -0.4003 C   0  0  0  0  0  0  0  0  0  0  0  0
   -0.6672   -4.1271   -1.5558 C   0  0  0  0  0  0  0  0  0  0  0  0
   -0.9939   -5.4843   -1.4499 C   0  0  0  0  0  0  0  0  0  0  0  0
   -1.2683   -6.0261   -0.1885 C   0  0  0  0  0  0  0  0  0  0  0  0
   -1.0964   -5.2689    0.9764 C   0  0  0  0  0  0  0  0  0  0  0  0
   -0.8707   -3.8931    0.8491 C   0  0  0  0  0  0  0  0  0  0  0  0
   -1.4834   -7.2933   -0.2986 O   0  0  0  0  0  0  0  0  0  0  0  0
   -1.5460   -7.4633   -1.7171 C   0  0  0  0  0  0  0  0  0  0  0  0
   -1.1203   -6.3040   -2.4379 O   0  0  0  0  0  0  0  0  0  0  0  0
    1.2367    0.1215   -0.3511 C   0  0  0  0  0  0  0  0  0  0  0  0
    2.2134    0.6545   -0.8005 O   0  0  0  0  0  0  0  0  0  0  0  0
    1.9820   -2.9753   -1.5974 H   0  0  0  0  0  0  0  0  0  0  0  0
    3.0355   -1.5601   -1.3642 H   0  0  0  0  0  0  0  0  0  0  0  0
    1.6303   -1.4544   -2.4528 H   0  0  0  0  0  0  0  0  0  0  0  0
    1.5168   -1.8106    0.5803 H   0  0  0  0  0  0  0  0  0  0  0  0
   -0.9482   -1.3170    0.2442 H   0  0  0  0  0  0  0  0  0  0  0  0
   -0.6586   -1.4868   -1.5041 H   0  0  0  0  0  0  0  0  0  0  0  0
   -0.5099   -3.6793   -2.5370 H   0  0  0  0  0  0  0  0  0  0  0  0
   -1.3670   -5.6897    1.9448 H   0  0  0  0  0  0  0  0  0  0  0  0
   -0.9383   -3.2472    1.7246 H   0  0  0  0  0  0  0  0  0  0  0  0
   -2.5705   -7.6951   -2.0082 H   0  0  0  0  0  0  0  0  0  0  0  0
   -0.8964   -8.2991   -1.9773 H   0  0  0  0  0  0  0  0  0  0  0  0
    0.4117    0.7251    0.0271 H   0  0  0  0  0  0  0  0  0  0  0  0
  1 15 1.00  0  0  0  0
  1 16 1.00  0  0  0  0
  1 17 1.00  0  0  0  0
  1  2 1.00  0  0  0  0
  2 13 1.00  0  0  0  0
  2  3 1.00  0  0  0  0
  2 18 1.00  0  0  0  0
  3  4 1.00  0  0  0  0
  3 19 1.00  0  0  0  0
  3 20 1.00  0  0  0  0
  4  5 1.50  0  0  0  0
  4  9 1.50  0  0  0  0
  5  6 1.50  0  0  0  0
  5 21 1.00  0  0  0  0
  6  7 1.50  0  0  0  0
  6 12 1.50  0  0  0  0
  7 10 1.50  0  0  0  0
  8  7 1.50  0  0  0  0
  8  9 1.50  0  0  0  0
  8 22 1.00  0  0  0  0
  9 23 1.00  0  0  0  0
 10 11 1.00  0  0  0  0
 11 12 1.00  0  0  0  0
 11 24 1.00  0  0  0  0
 11 25 1.00  0  0  0  0
 13 14 2.00  0  0  0  0
 13 26 1.00  0  0  0  0
M  END

