
 OpenBabel07242500063D

 29 28  0  0  1  0  0  0  0  0999 V2000
    3.1376    0.8964   -1.1381 C   0  0  0  0  0  0  0  0  0  0  0  0
    2.6444    0.0138    0.0140 C   0  0  2  0  0  0  0  0  0  0  0  0
    1.1004   -0.0570    0.0179 C   0  0  0  0  0  0  0  0  0  0  0  0
    0.5685   -0.5707   -1.3213 C   0  0  0  0  0  0  0  0  0  0  0  0
   -0.9257   -0.6418   -1.3726 C   0  0  0  0  0  0  0  0  0  0  0  0
   -1.7228    0.3585   -1.7919 C   0  0  0  0  0  0  0  0  0  0  0  0
   -1.2189    1.7022   -2.2474 C   0  0  0  0  0  0  0  0  0  0  0  0
   -3.2174    0.2038   -1.8176 C   0  0  0  0  0  0  0  0  0  0  0  0
    3.1492    0.5216    1.3716 C   0  0  0  0  0  0  0  0  0  0  0  0
    4.6553    0.6190    1.4374 C   0  0  0  0  0  0  0  0  0  0  0  0
    5.2468    1.6659    1.6388 O   0  0  0  0  0  0  0  0  0  0  0  0
    4.2296    0.9015   -1.2049 H   0  0  0  0  0  0  0  0  0  0  0  0
    2.7902    1.9281   -1.0264 H   0  0  0  0  0  0  0  0  0  0  0  0
    2.7884    0.5273   -2.1049 H   0  0  0  0  0  0  0  0  0  0  0  0
    3.0434   -0.9961   -0.1401 H   0  0  0  0  0  0  0  0  0  0  0  0
    0.7537   -0.7275    0.8166 H   0  0  0  0  0  0  0  0  0  0  0  0
    0.6806    0.9332    0.2379 H   0  0  0  0  0  0  0  0  0  0  0  0
    0.9891   -1.5670   -1.5105 H   0  0  0  0  0  0  0  0  0  0  0  0
    0.9121    0.0638   -2.1360 H   0  0  0  0  0  0  0  0  0  0  0  0
   -1.3677   -1.5849   -1.0619 H   0  0  0  0  0  0  0  0  0  0  0  0
   -0.1323    1.7943   -2.2194 H   0  0  0  0  0  0  0  0  0  0  0  0
   -1.6192    2.4931   -1.6051 H   0  0  0  0  0  0  0  0  0  0  0  0
   -1.5315    1.8912   -3.2784 H   0  0  0  0  0  0  0  0  0  0  0  0
   -3.5383   -0.7880   -1.4808 H   0  0  0  0  0  0  0  0  0  0  0  0
   -3.5931    0.3491   -2.8342 H   0  0  0  0  0  0  0  0  0  0  0  0
   -3.6848    0.9459   -1.1625 H   0  0  0  0  0  0  0  0  0  0  0  0
    2.8471   -0.1798    2.1598 H   0  0  0  0  0  0  0  0  0  0  0  0
    2.7258    1.5009    1.6068 H   0  0  0  0  0  0  0  0  0  0  0  0
    5.2082   -0.3315    1.3151 H   0  0  0  0  0  0  0  0  0  0  0  0
  1 12  1  0  0  0  0
  1 13  1  0  0  0  0
  1 14  1  0  0  0  0
  2  9  1  0  0  0  0
  2  3  1  0  0  0  0
  2  1  1  0  0  0  0
  2 15  1  6  0  0  0
  3  4  1  0  0  0  0
  3 16  1  0  0  0  0
  3 17  1  0  0  0  0
  4  5  1  0  0  0  0
  4 18  1  0  0  0  0
  4 19  1  0  0  0  0
  5  6  2  0  0  0  0
  5 20  1  0  0  0  0
  6  7  1  0  0  0  0
  6  8  1  0  0  0  0
  7 21  1  0  0  0  0
  7 22  1  0  0  0  0
  7 23  1  0  0  0  0
  8 24  1  0  0  0  0
  8 25  1  0  0  0  0
  8 26  1  0  0  0  0
  9 10  1  0  0  0  0
  9 27  1  0  0  0  0
  9 28  1  0  0  0  0
 10 11  2  0  0  0  0
 10 29  1  0  0  0  0
M  END
$$$$
