
 OpenBabel06282515043D

 31 30  0  0  1  0  0  0  0  0999 V2000
    2.9332    1.0366    1.1555 C   0  0  0  0  0  0  0  0  0  0  0  0
    2.4406    0.0844    0.0601 C   0  0  1  0  0  0  0  0  0  0  0  0
    2.9089    0.6141   -1.3180 C   0  0  0  0  0  0  0  0  0  0  0  0
    2.3968   -0.2142   -2.5002 C   0  0  0  0  0  0  0  0  0  0  0  0
    2.9129    0.2820   -3.8213 C   0  0  0  0  0  0  0  0  0  0  0  0
    4.0551   -0.1087   -4.4217 C   0  0  0  0  0  0  0  0  0  0  0  0
    5.0536   -1.0609   -3.8197 C   0  0  0  0  0  0  0  0  0  0  0  0
    4.4337    0.4054   -5.7849 C   0  0  0  0  0  0  0  0  0  0  0  0
    2.9227   -1.3568    0.3117 C   0  0  0  0  0  0  0  0  0  0  0  0
    2.4010   -1.9697    1.6081 C   0  0  0  0  0  0  0  0  0  0  0  0
    2.8605   -3.3114    1.7200 O   0  0  0  0  0  0  0  0  0  0  0  0
    2.5385    2.0466    1.0024 H   0  0  0  0  0  0  0  0  0  0  0  0
    4.0276    1.0979    1.1640 H   0  0  0  0  0  0  0  0  0  0  0  0
    2.6055    0.7159    2.1480 H   0  0  0  0  0  0  0  0  0  0  0  0
    1.3429    0.0939    0.0702 H   0  0  0  0  0  0  0  0  0  0  0  0
    4.0070    0.6516   -1.3376 H   0  0  0  0  0  0  0  0  0  0  0  0
    2.5638    1.6516   -1.4379 H   0  0  0  0  0  0  0  0  0  0  0  0
    1.2997   -0.1967   -2.5190 H   0  0  0  0  0  0  0  0  0  0  0  0
    2.6678   -1.2690   -2.3982 H   0  0  0  0  0  0  0  0  0  0  0  0
    2.2621    0.9930   -4.3321 H   0  0  0  0  0  0  0  0  0  0  0  0
    4.7798   -1.4079   -2.8203 H   0  0  0  0  0  0  0  0  0  0  0  0
    6.0283   -0.5700   -3.7298 H   0  0  0  0  0  0  0  0  0  0  0  0
    5.1666   -1.9445   -4.4567 H   0  0  0  0  0  0  0  0  0  0  0  0
    3.6824    1.0873   -6.1956 H   0  0  0  0  0  0  0  0  0  0  0  0
    4.5417   -0.4295   -6.4851 H   0  0  0  0  0  0  0  0  0  0  0  0
    5.3846    0.9441   -5.7363 H   0  0  0  0  0  0  0  0  0  0  0  0
    4.0198   -1.3960    0.3033 H   0  0  0  0  0  0  0  0  0  0  0  0
    2.6009   -2.0168   -0.4992 H   0  0  0  0  0  0  0  0  0  0  0  0
    1.3058   -1.9756    1.6289 H   0  0  0  0  0  0  0  0  0  0  0  0
    2.7629   -1.4318    2.4862 H   0  0  0  0  0  0  0  0  0  0  0  0
    2.5060   -3.8081    0.9628 H   0  0  0  0  0  0  0  0  0  0  0  0
  1  2  1  0  0  0  0
  1 12  1  0  0  0  0
  1 13  1  0  0  0  0
  1 14  1  0  0  0  0
  2  3  1  0  0  0  0
  2  9  1  0  0  0  0
  2 15  1  1  0  0  0
  3  4  1  0  0  0  0
  3 16  1  0  0  0  0
  3 17  1  0  0  0  0
  4  5  1  0  0  0  0
  4 18  1  0  0  0  0
  4 19  1  0  0  0  0
  5  6  2  0  0  0  0
  5 20  1  0  0  0  0
  6  7  1  0  0  0  0
  6  8  1  0  0  0  0
  7 21  1  0  0  0  0
  7 22  1  0  0  0  0
  7 23  1  0  0  0  0
  8 24  1  0  0  0  0
  8 25  1  0  0  0  0
  8 26  1  0  0  0  0
  9 10  1  0  0  0  0
  9 27  1  0  0  0  0
  9 28  1  0  0  0  0
 10 11  1  0  0  0  0
 10 29  1  0  0  0  0
 10 30  1  0  0  0  0
 11 31  1  0  0  0  0
M  END
$$$$
