Test
 OpenBabel06172519403D

 27 27  0     0  0  0  0  0  0999 V2000
    2.2212   -1.7279   -0.6742 C   0  0  0  0  0  0  0  0  0  0  0  0
    1.7783   -0.7799    0.4558 C   0  0  0  0  0  0  0  0  0  0  0  0
    2.9883   -0.3914    1.3257 C   0  0  0  0  0  0  0  0  0  0  0  0
    2.5964    0.4012    2.5865 C   0  0  0  0  0  0  0  0  0  0  0  0
    3.5809    0.8163    3.4911 C   0  0  0  0  0  0  0  0  0  0  0  0
    3.2219    1.5471    4.6300 C   0  0  0  0  0  0  0  0  0  0  0  0
    1.8773    1.8553    4.8687 C   0  0  0  0  0  0  0  0  0  0  0  0
    0.8890    1.4069    3.9843 C   0  0  0  0  0  0  0  0  0  0  0  0
    1.2488    0.6821    2.8418 C   0  0  0  0  0  0  0  0  0  0  0  0
    1.4083    2.6095    5.9895 O   0  0  0  0  0  0  0  0  0  0  0  0
    2.4061    3.1179    6.8787 C   0  0  0  0  0  0  0  0  0  0  0  0
    1.2126    0.5162   -0.1539 C   0  0  0  0  0  0  0  0  0  0  0  0
    1.3304    1.5565    0.4326 O   0  0  0  0  0  0  0  0  0  0  0  0
    2.6380   -2.6388   -0.2446 H   0  0  0  0  0  0  0  0  0  0  0  0
    2.9775   -1.2358   -1.2856 H   0  0  0  0  0  0  0  0  0  0  0  0
    1.3605   -1.9780   -1.2945 H   0  0  0  0  0  0  0  0  0  0  0  0
    1.0178   -1.2505    1.0788 H   0  0  0  0  0  0  0  0  0  0  0  0
    3.6729    0.2033    0.7209 H   0  0  0  0  0  0  0  0  0  0  0  0
    3.4785   -1.3200    1.6179 H   0  0  0  0  0  0  0  0  0  0  0  0
    4.6282    0.5792    3.3035 H   0  0  0  0  0  0  0  0  0  0  0  0
    3.9898    1.8802    5.3282 H   0  0  0  0  0  0  0  0  0  0  0  0
   -0.1600    1.6275    4.1819 H   0  0  0  0  0  0  0  0  0  0  0  0
    0.4835    0.3689    2.1318 H   0  0  0  0  0  0  0  0  0  0  0  0
    1.9285    3.6711    7.6874 H   0  0  0  0  0  0  0  0  0  0  0  0
    3.0746    3.7827    6.3316 H   0  0  0  0  0  0  0  0  0  0  0  0
    2.9782    2.2885    7.2942 H   0  0  0  0  0  0  0  0  0  0  0  0
    0.6948    0.4867   -1.1126 H   0  0  0  0  0  0  0  0  0  0  0  0
  1  2 1.00  0  0  0  0
  1 14 1.00  0  0  0  0
  1 15 1.00  0  0  0  0
  1 16 1.00  0  0  0  0
  2  3 1.00  0  0  0  0
  2 12 1.00  0  0  0  0
  2 17 1.00  0  0  0  0
  3  4 1.00  0  0  0  0
  3 18 1.00  0  0  0  0
  3 19 1.00  0  0  0  0
  4  5 1.50  0  0  0  0
  4  9 1.50  0  0  0  0
  5  6 1.50  0  0  0  0
  5 20 1.00  0  0  0  0
  6  7 1.50  0  0  0  0
  6 21 1.00  0  0  0  0
  7 10 1.00  0  0  0  0
  8  7 1.50  0  0  0  0
  8  9 1.50  0  0  0  0
  8 22 1.00  0  0  0  0
  9 23 1.00  0  0  0  0
 10 11 1.00  0  0  0  0
 11 24 1.00  0  0  0  0
 11 25 1.00  0  0  0  0
 11 26 1.00  0  0  0  0
 12 13 2.00  0  0  0  0
 12 27 1.00  0  0  0  0
M  END

