
 OpenBabel07242500063D

 29 28  0  0  1  0  0  0  0  0999 V2000
    2.9967    0.5792   -1.4298 C   0  0  0  0  0  0  0  0  0  0  0  0
    2.5324    0.1393   -0.0339 C   0  0  1  0  0  0  0  0  0  0  0  0
    2.9985   -1.3116    0.2195 C   0  0  0  0  0  0  0  0  0  0  0  0
    2.5024   -1.8929    1.5472 C   0  0  0  0  0  0  0  0  0  0  0  0
    3.0257   -3.2794    1.7974 C   0  0  0  0  0  0  0  0  0  0  0  0
    4.1819   -3.5951    2.4145 C   0  0  0  0  0  0  0  0  0  0  0  0
    5.2010   -2.5942    2.8904 C   0  0  0  0  0  0  0  0  0  0  0  0
    4.5540   -5.0301    2.6760 C   0  0  0  0  0  0  0  0  0  0  0  0
    3.0567    1.1094    1.0379 C   0  0  0  0  0  0  0  0  0  0  0  0
    2.4937    2.4956    0.8585 C   0  0  0  0  0  0  0  0  0  0  0  0
    3.1925    3.5040    0.8008 O   0  0  0  0  0  0  0  0  0  0  0  0
    2.5804   -0.0761   -2.2020 H   0  0  0  0  0  0  0  0  0  0  0  0
    4.0888    0.5482   -1.5117 H   0  0  0  0  0  0  0  0  0  0  0  0
    2.6708    1.5991   -1.6583 H   0  0  0  0  0  0  0  0  0  0  0  0
    1.4346    0.1597   -0.0263 H   0  0  0  0  0  0  0  0  0  0  0  0
    4.0949   -1.3510    0.1810 H   0  0  0  0  0  0  0  0  0  0  0  0
    2.6383   -1.9494   -0.5995 H   0  0  0  0  0  0  0  0  0  0  0  0
    1.4060   -1.9281    1.5461 H   0  0  0  0  0  0  0  0  0  0  0  0
    2.7740   -1.2553    2.3922 H   0  0  0  0  0  0  0  0  0  0  0  0
    2.3668   -4.0831    1.4701 H   0  0  0  0  0  0  0  0  0  0  0  0
    4.9322   -1.5594    2.6638 H   0  0  0  0  0  0  0  0  0  0  0  0
    6.1658   -2.7866    2.4089 H   0  0  0  0  0  0  0  0  0  0  0  0
    5.3330   -2.6733    3.9741 H   0  0  0  0  0  0  0  0  0  0  0  0
    3.7847   -5.7284    2.3309 H   0  0  0  0  0  0  0  0  0  0  0  0
    4.6899   -5.1925    3.7507 H   0  0  0  0  0  0  0  0  0  0  0  0
    5.4892   -5.2808    2.1653 H   0  0  0  0  0  0  0  0  0  0  0  0
    4.1511    1.1577    1.0217 H   0  0  0  0  0  0  0  0  0  0  0  0
    2.7482    0.7989    2.0402 H   0  0  0  0  0  0  0  0  0  0  0  0
    1.3922    2.5665    0.8333 H   0  0  0  0  0  0  0  0  0  0  0  0
  1  2  1  0  0  0  0
  1 12  1  0  0  0  0
  1 13  1  0  0  0  0
  1 14  1  0  0  0  0
  2  3  1  0  0  0  0
  2  9  1  0  0  0  0
  2 15  1  1  0  0  0
  3  4  1  0  0  0  0
  3 16  1  0  0  0  0
  3 17  1  0  0  0  0
  4  5  1  0  0  0  0
  4 18  1  0  0  0  0
  4 19  1  0  0  0  0
  5  6  2  0  0  0  0
  5 20  1  0  0  0  0
  6  7  1  0  0  0  0
  6  8  1  0  0  0  0
  7 21  1  0  0  0  0
  7 22  1  0  0  0  0
  7 23  1  0  0  0  0
  8 24  1  0  0  0  0
  8 25  1  0  0  0  0
  8 26  1  0  0  0  0
  9 10  1  0  0  0  0
  9 27  1  0  0  0  0
  9 28  1  0  0  0  0
 10 11  2  0  0  0  0
 10 29  1  0  0  0  0
M  END
$$$$
