
 OpenBabel09302518353D

 29 29  0  0  1  0  0  0  0  0999 V2000
    2.5995    0.0725    0.1028 C   0  0  0  0  0  0  0  0  0  0  0  0
    1.1000    0.0694    0.0583 C   0  0  0  0  0  0  0  0  0  0  0  0
    0.3815    1.1994   -0.0553 C   0  0  0  0  0  0  0  0  0  0  0  0
   -1.1190    1.2369   -0.0960 C   0  0  0  0  0  0  0  0  0  0  0  0
   -1.8145   -0.0917    0.2989 C   0  0  2  0  0  0  0  0  0  0  0  0
   -1.0268   -1.2738   -0.3014 C   0  0  0  0  0  0  0  0  0  0  0  0
    0.4407   -1.2799    0.1373 C   0  0  0  0  0  0  0  0  0  0  0  0
   -3.3272   -0.0981   -0.0941 C   0  0  0  0  0  0  0  0  0  0  0  0
   -4.0331   -1.4106    0.2798 C   0  0  0  0  0  0  0  0  0  0  0  0
   -4.0871    1.0598    0.5682 C   0  0  0  0  0  0  0  0  0  0  0  0
   -3.4668    0.0826   -1.5069 O   0  0  0  0  0  0  0  0  0  0  0  0
    3.0108    1.0877    0.0494 H   0  0  0  0  0  0  0  0  0  0  0  0
    3.0036   -0.4936   -0.7424 H   0  0  0  0  0  0  0  0  0  0  0  0
    2.9544   -0.3846    1.0326 H   0  0  0  0  0  0  0  0  0  0  0  0
    0.8865    2.1601   -0.1296 H   0  0  0  0  0  0  0  0  0  0  0  0
   -1.4137    1.5454   -1.1061 H   0  0  0  0  0  0  0  0  0  0  0  0
   -1.4467    2.0279    0.5890 H   0  0  0  0  0  0  0  0  0  0  0  0
   -1.7542   -0.1838    1.3931 H   0  0  0  0  0  0  0  0  0  0  0  0
   -1.0703   -1.2361   -1.3967 H   0  0  0  0  0  0  0  0  0  0  0  0
   -1.4650   -2.2302    0.0029 H   0  0  0  0  0  0  0  0  0  0  0  0
    0.9811   -1.9955   -0.4928 H   0  0  0  0  0  0  0  0  0  0  0  0
    0.5126   -1.6432    1.1704 H   0  0  0  0  0  0  0  0  0  0  0  0
   -3.9795   -1.6066    1.3554 H   0  0  0  0  0  0  0  0  0  0  0  0
   -3.6139   -2.2684   -0.2556 H   0  0  0  0  0  0  0  0  0  0  0  0
   -5.0895   -1.3773   -0.0134 H   0  0  0  0  0  0  0  0  0  0  0  0
   -4.0758    0.9773    1.6598 H   0  0  0  0  0  0  0  0  0  0  0  0
   -5.1309    1.0798    0.2326 H   0  0  0  0  0  0  0  0  0  0  0  0
   -3.6725    2.0325    0.2858 H   0  0  0  0  0  0  0  0  0  0  0  0
   -3.1367   -0.7156   -1.9520 H   0  0  0  0  0  0  0  0  0  0  0  0
  1  2  1  0  0  0  0
  1 12  1  0  0  0  0
  1 13  1  0  0  0  0
  1 14  1  0  0  0  0
  2  3  2  0  0  0  0
  2  7  1  0  0  0  0
  3  4  1  0  0  0  0
  3 15  1  0  0  0  0
  4  5  1  0  0  0  0
  4 16  1  0  0  0  0
  4 17  1  0  0  0  0
  5  6  1  0  0  0  0
  5  8  1  0  0  0  0
  5 18  1  1  0  0  0
  6  7  1  0  0  0  0
  6 19  1  0  0  0  0
  6 20  1  0  0  0  0
  7 21  1  0  0  0  0
  7 22  1  0  0  0  0
  8  9  1  0  0  0  0
  8 10  1  0  0  0  0
  8 11  1  0  0  0  0
  9 23  1  0  0  0  0
  9 24  1  0  0  0  0
  9 25  1  0  0  0  0
 10 26  1  0  0  0  0
 10 27  1  0  0  0  0
 10 28  1  0  0  0  0
 11 29  1  0  0  0  0
M  END
$$$$
