Test
 OpenBabel06132506423D

 32 32  0     0  0  0  0  0  0999 V2000
    7.1396   -1.5202    0.6620 C   0  0  0  0  0  0  0  0  0  0  0  0
    5.8659   -0.6801    0.4536 C   0  0  0  0  0  0  0  0  0  0  0  0
    5.7580    0.3935    1.5525 C   0  0  0  0  0  0  0  0  0  0  0  0
    5.8896   -0.0008   -0.9283 C   0  0  0  0  0  0  0  0  0  0  0  0
    5.2296    1.2206   -1.1085 C   0  0  0  0  0  0  0  0  0  0  0  0
    5.1280    1.8038   -2.3772 C   0  0  0  0  0  0  0  0  0  0  0  0
    5.7216    1.1849   -3.4838 C   0  0  0  0  0  0  0  0  0  0  0  0
    6.3609   -0.0486   -3.3110 C   0  0  0  0  0  0  0  0  0  0  0  0
    6.4476   -0.6371   -2.0436 C   0  0  0  0  0  0  0  0  0  0  0  0
    5.5164    1.7562   -4.8991 C   0  0  0  0  0  0  0  0  0  0  0  0
    6.6041    2.7575   -5.3305 C   0  0  0  0  0  0  0  0  0  0  0  0
    6.1921    3.4301   -6.6532 C   0  0  0  0  0  0  0  0  0  0  0  0
    7.9177    1.9748   -5.5131 C   0  0  0  0  0  0  0  0  0  0  0  0
    8.7474    2.3675   -6.2859 O   0  0  0  0  0  0  0  0  0  0  0  0
    7.1030   -1.9989    1.6405 H   0  0  0  0  0  0  0  0  0  0  0  0
    8.0141   -0.8719    0.6061 H   0  0  0  0  0  0  0  0  0  0  0  0
    7.2028   -2.2832   -0.1139 H   0  0  0  0  0  0  0  0  0  0  0  0
    4.9893   -1.3229    0.5347 H   0  0  0  0  0  0  0  0  0  0  0  0
    6.6265    1.0520    1.5586 H   0  0  0  0  0  0  0  0  0  0  0  0
    5.6955   -0.1345    2.5040 H   0  0  0  0  0  0  0  0  0  0  0  0
    4.8534    0.9851    1.4117 H   0  0  0  0  0  0  0  0  0  0  0  0
    4.7626    1.7014   -0.2489 H   0  0  0  0  0  0  0  0  0  0  0  0
    4.5904    2.7438   -2.5018 H   0  0  0  0  0  0  0  0  0  0  0  0
    6.7945   -0.5532   -4.1744 H   0  0  0  0  0  0  0  0  0  0  0  0
    6.9525   -1.5960   -1.9270 H   0  0  0  0  0  0  0  0  0  0  0  0
    4.5506    2.2614   -4.9085 H   0  0  0  0  0  0  0  0  0  0  0  0
    5.4968    0.9233   -5.6019 H   0  0  0  0  0  0  0  0  0  0  0  0
    6.7385    3.5185   -4.5619 H   0  0  0  0  0  0  0  0  0  0  0  0
    5.9522    2.6645   -7.3910 H   0  0  0  0  0  0  0  0  0  0  0  0
    7.0168    4.0406   -7.0210 H   0  0  0  0  0  0  0  0  0  0  0  0
    5.3194    4.0608   -6.4838 H   0  0  0  0  0  0  0  0  0  0  0  0
    8.1088    1.0840   -4.9148 H   0  0  0  0  0  0  0  0  0  0  0  0
  1  2 1.00  0  0  0  0
  1 15 1.00  0  0  0  0
  1 16 1.00  0  0  0  0
  1 17 1.00  0  0  0  0
  2  3 1.00  0  0  0  0
  2  4 1.00  0  0  0  0
  2 18 1.00  0  0  0  0
  3 19 1.00  0  0  0  0
  3 20 1.00  0  0  0  0
  3 21 1.00  0  0  0  0
  4  5 1.50  0  0  0  0
  4  9 1.50  0  0  0  0
  5  6 1.50  0  0  0  0
  5 22 1.00  0  0  0  0
  6  7 1.50  0  0  0  0
  6 23 1.00  0  0  0  0
  7 10 1.00  0  0  0  0
  8  7 1.50  0  0  0  0
  8  9 1.50  0  0  0  0
  8 24 1.00  0  0  0  0
  9 25 1.00  0  0  0  0
 10 26 1.00  0  0  0  0
 10 27 1.00  0  0  0  0
 10 11 1.00  0  0  0  0
 11 13 1.00  0  0  0  0
 11 12 1.00  0  0  0  0
 11 28 1.00  0  0  0  0
 12 29 1.00  0  0  0  0
 12 30 1.00  0  0  0  0
 12 31 1.00  0  0  0  0
 13 14 2.00  0  0  0  0
 13 32 1.00  0  0  0  0
M  END

