Test
 OpenBabel07152510083D

 37 37  0     0  0  0  0  0  0999 V2000
    0.8305   -0.0190    0.1706 C   0  0  0  0  0  0  0  0  0  0  0  0
    2.3704   -0.0119    0.1548 C   0  0  0  0  0  0  0  0  0  0  0  0
    2.8825    0.1572   -1.2877 C   0  0  0  0  0  0  0  0  0  0  0  0
    2.9461    1.1124    1.0358 C   0  0  0  0  0  0  0  0  0  0  0  0
    2.5378    2.5421    0.6347 C   0  0  0  0  0  0  0  0  0  0  0  0
    3.1881    3.5836    1.5642 C   0  0  0  0  0  0  0  0  0  0  0  0
    2.7699    5.0038    1.1401 C   0  0  0  0  0  0  0  0  0  0  0  0
    1.9695    5.2117    0.0857 C   0  0  0  0  0  0  0  0  0  0  0  0
    1.5622    6.6350   -0.3386 C   0  0  0  0  0  0  0  0  0  0  0  0
    2.4302    7.7328    0.3040 C   0  0  0  0  0  0  0  0  0  0  0  0
    2.6700    7.4442    1.7976 C   0  0  0  0  0  0  0  0  0  0  0  0
    3.3833    6.0996    2.0315 C   0  0  0  0  0  0  0  0  0  0  0  0
    1.7221    9.0949    0.1821 C   0  0  0  0  0  0  0  0  0  0  0  0
    0.9676    9.2992   -0.7283 O   0  0  0  0  0  0  0  0  0  0  0  0
    2.8193   -1.2767    0.6484 O   0  0  0  0  0  0  0  0  0  0  0  0
    0.4643   -0.8353   -0.4521 H   0  0  0  0  0  0  0  0  0  0  0  0
    0.4451    0.9273   -0.2090 H   0  0  0  0  0  0  0  0  0  0  0  0
    0.4836   -0.1594    1.1944 H   0  0  0  0  0  0  0  0  0  0  0  0
    2.4924   -0.6492   -1.9086 H   0  0  0  0  0  0  0  0  0  0  0  0
    3.9721    0.1266   -1.2935 H   0  0  0  0  0  0  0  0  0  0  0  0
    2.5324    1.1143   -1.6743 H   0  0  0  0  0  0  0  0  0  0  0  0
    4.0304    1.0156    0.9820 H   0  0  0  0  0  0  0  0  0  0  0  0
    2.6134    0.9211    2.0560 H   0  0  0  0  0  0  0  0  0  0  0  0
    1.4530    2.6144    0.7120 H   0  0  0  0  0  0  0  0  0  0  0  0
    2.8350    2.7352   -0.3960 H   0  0  0  0  0  0  0  0  0  0  0  0
    4.2740    3.4975    1.5260 H   0  0  0  0  0  0  0  0  0  0  0  0
    2.8437    3.3932    2.5807 H   0  0  0  0  0  0  0  0  0  0  0  0
    1.5294    4.3476   -0.4120 H   0  0  0  0  0  0  0  0  0  0  0  0
    0.5182    6.7922   -0.0677 H   0  0  0  0  0  0  0  0  0  0  0  0
    1.6721    6.6729   -1.4224 H   0  0  0  0  0  0  0  0  0  0  0  0
    3.3848    7.7711   -0.2206 H   0  0  0  0  0  0  0  0  0  0  0  0
    1.7139    7.4456    2.3210 H   0  0  0  0  0  0  0  0  0  0  0  0
    3.3119    8.2201    2.2147 H   0  0  0  0  0  0  0  0  0  0  0  0
    3.3363    5.8341    3.0876 H   0  0  0  0  0  0  0  0  0  0  0  0
    4.4260    6.2020    1.7310 H   0  0  0  0  0  0  0  0  0  0  0  0
    2.0140    9.9123    0.8414 H   0  0  0  0  0  0  0  0  0  0  0  0
    2.4847   -1.9792    0.0692 H   0  0  0  0  0  0  0  0  0  0  0  0
  1  2 1.00  0  0  0  0
  1 16 1.00  0  0  0  0
  1 17 1.00  0  0  0  0
  1 18 1.00  0  0  0  0
  2  3 1.00  0  0  0  0
  2  4 1.00  0  0  0  0
  2 15 1.00  0  0  0  0
  3 19 1.00  0  0  0  0
  3 20 1.00  0  0  0  0
  3 21 1.00  0  0  0  0
  4  5 1.00  0  0  0  0
  4 22 1.00  0  0  0  0
  4 23 1.00  0  0  0  0
  5  6 1.00  0  0  0  0
  5 24 1.00  0  0  0  0
  5 25 1.00  0  0  0  0
  6  7 1.00  0  0  0  0
  6 26 1.00  0  0  0  0
  6 27 1.00  0  0  0  0
  7 12 1.00  0  0  0  0
  8  7 2.00  0  0  0  0
  8  9 1.00  0  0  0  0
  8 28 1.00  0  0  0  0
  9 10 1.00  0  0  0  0
  9 29 1.00  0  0  0  0
  9 30 1.00  0  0  0  0
 10 11 1.00  0  0  0  0
 10 13 1.00  0  0  0  0
 10 31 1.00  0  0  0  0
 11 12 1.00  0  0  0  0
 11 32 1.00  0  0  0  0
 11 33 1.00  0  0  0  0
 12 34 1.00  0  0  0  0
 12 35 1.00  0  0  0  0
 13 14 2.00  0  0  0  0
 13 36 1.00  0  0  0  0
 15 37 1.00  0  0  0  0
M  END

