
 OpenBabel10032517423D

 26 26  0  0  1  0  0  0  0  0999 V2000
    2.4032   -0.0963    3.2420 C   0  0  0  0  0  0  0  0  0  0  0  0
    2.2663   -0.1828    1.7305 C   0  0  0  0  0  0  0  0  0  0  0  0
    3.0038    0.9394    0.9663 C   0  0  2  0  0  0  0  0  0  0  0  0
    2.6650    0.8029   -0.5263 C   0  0  0  0  0  0  0  0  0  0  0  0
    4.5066    0.8715    1.1647 C   0  0  0  0  0  0  0  0  0  0  0  0
    5.1042   -0.2985    0.7928 N   0  0  0  0  0  0  0  0  0  0  0  0
    6.4385   -0.3836    0.9840 C   0  0  0  0  0  0  0  0  0  0  0  0
    7.1703    0.6523    1.5272 C   0  0  0  0  0  0  0  0  0  0  0  0
    6.6069    1.8215    1.8889 N   0  0  0  0  0  0  0  0  0  0  0  0
    5.2649    1.9224    1.7032 C   0  0  0  0  0  0  0  0  0  0  0  0
    4.6476    3.1020    2.0686 O   0  0  0  0  0  0  0  0  0  0  0  0
    5.5670    4.0799    2.5574 C   0  0  0  0  0  0  0  0  0  0  0  0
    1.7530   -0.8404    3.7146 H   0  0  0  0  0  0  0  0  0  0  0  0
    2.1107    0.8915    3.6098 H   0  0  0  0  0  0  0  0  0  0  0  0
    3.4287   -0.3015    3.5628 H   0  0  0  0  0  0  0  0  0  0  0  0
    1.1976   -0.1391    1.4830 H   0  0  0  0  0  0  0  0  0  0  0  0
    2.6176   -1.1695    1.4001 H   0  0  0  0  0  0  0  0  0  0  0  0
    2.6160    1.9057    1.3085 H   0  0  0  0  0  0  0  0  0  0  0  0
    2.9805   -0.1683   -0.9254 H   0  0  0  0  0  0  0  0  0  0  0  0
    3.1543    1.5823   -1.1226 H   0  0  0  0  0  0  0  0  0  0  0  0
    1.5842    0.8858   -0.6878 H   0  0  0  0  0  0  0  0  0  0  0  0
    6.9044   -1.3148    0.6910 H   0  0  0  0  0  0  0  0  0  0  0  0
    8.2400    0.5720    1.6845 H   0  0  0  0  0  0  0  0  0  0  0  0
    5.0021    4.9766    2.8294 H   0  0  0  0  0  0  0  0  0  0  0  0
    6.2896    4.3671    1.7838 H   0  0  0  0  0  0  0  0  0  0  0  0
    6.0817    3.7297    3.4603 H   0  0  0  0  0  0  0  0  0  0  0  0
  1  2  1  0  0  0  0
  1 13  1  0  0  0  0
  1 14  1  0  0  0  0
  1 15  1  0  0  0  0
  2 16  1  0  0  0  0
  2 17  1  0  0  0  0
  3  5  1  0  0  0  0
  3  4  1  0  0  0  0
  3  2  1  0  0  0  0
  3 18  1  1  0  0  0
  4 19  1  0  0  0  0
  4 20  1  0  0  0  0
  4 21  1  0  0  0  0
  5  6  2  0  0  0  0
  5 10  1  0  0  0  0
  6  7  1  0  0  0  0
  7  8  2  0  0  0  0
  7 22  1  0  0  0  0
  8  9  1  0  0  0  0
  8 23  1  0  0  0  0
  9 10  2  0  0  0  0
 10 11  1  0  0  0  0
 11 12  1  0  0  0  0
 12 24  1  0  0  0  0
 12 25  1  0  0  0  0
 12 26  1  0  0  0  0
M  END
$$$$
