Test
 OpenBabel07032507173D

 34 34  0     0  0  0  0  0  0999 V2000
    0.6853   -0.0443    0.2099 C   0  0  0  0  0  0  0  0  0  0  0  0
    2.1919   -0.0596    0.5284 C   0  0  0  0  0  0  0  0  0  0  0  0
    2.9425    0.9571    0.9739 C   0  0  0  0  0  0  0  0  0  0  0  0
    2.4136    2.3992    1.0852 C   0  0  0  0  0  0  0  0  0  0  0  0
    1.4092    2.7138    0.5088 O   0  0  0  0  0  0  0  0  0  0  0  0
    3.1269    3.4131    1.9989 C   0  0  0  0  0  0  0  0  0  0  0  0
    4.5177    3.7346    1.4212 C   0  0  0  0  0  0  0  0  0  0  0  0
    5.6677    3.5469    2.0830 C   0  0  0  0  0  0  0  0  0  0  0  0
    5.7479    2.8945    3.4757 C   0  0  0  0  0  0  0  0  0  0  0  0
    4.4453    2.1497    3.8222 C   0  0  0  0  0  0  0  0  0  0  0  0
    3.1838    2.9620    3.4702 C   0  0  0  0  0  0  0  0  0  0  0  0
    3.1353    4.2370    4.3324 C   0  0  0  0  0  0  0  0  0  0  0  0
    1.9836    2.0960    3.8956 C   0  0  0  0  0  0  0  0  0  0  0  0
    4.5064    4.4435    0.0541 C   0  0  0  0  0  0  0  0  0  0  0  0
    0.3841   -1.0249   -0.1588 H   0  0  0  0  0  0  0  0  0  0  0  0
    0.4835    0.7058   -0.5547 H   0  0  0  0  0  0  0  0  0  0  0  0
    0.1167    0.1964    1.1082 H   0  0  0  0  0  0  0  0  0  0  0  0
    2.6593   -1.0294    0.3575 H   0  0  0  0  0  0  0  0  0  0  0  0
    3.9887    0.7422    1.1913 H   0  0  0  0  0  0  0  0  0  0  0  0
    2.4872    4.2920    1.9180 H   0  0  0  0  0  0  0  0  0  0  0  0
    6.5730    3.9163    1.6013 H   0  0  0  0  0  0  0  0  0  0  0  0
    5.9350    3.6634    4.2253 H   0  0  0  0  0  0  0  0  0  0  0  0
    6.5777    2.1879    3.4650 H   0  0  0  0  0  0  0  0  0  0  0  0
    4.4534    1.9613    4.8958 H   0  0  0  0  0  0  0  0  0  0  0  0
    4.4216    1.1997    3.2883 H   0  0  0  0  0  0  0  0  0  0  0  0
    3.9873    4.8737    4.0940 H   0  0  0  0  0  0  0  0  0  0  0  0
    3.1653    3.9703    5.3888 H   0  0  0  0  0  0  0  0  0  0  0  0
    2.2104    4.7749    4.1247 H   0  0  0  0  0  0  0  0  0  0  0  0
    1.9799    1.1182    3.4139 H   0  0  0  0  0  0  0  0  0  0  0  0
    1.0689    2.6305    3.6390 H   0  0  0  0  0  0  0  0  0  0  0  0
    2.0385    1.9688    4.9768 H   0  0  0  0  0  0  0  0  0  0  0  0
    3.7113    4.0305   -0.5665 H   0  0  0  0  0  0  0  0  0  0  0  0
    5.4677    4.2824   -0.4339 H   0  0  0  0  0  0  0  0  0  0  0  0
    4.3368    5.5106    0.1980 H   0  0  0  0  0  0  0  0  0  0  0  0
  1  2 1.00  0  0  0  0
  1 15 1.00  0  0  0  0
  1 16 1.00  0  0  0  0
  1 17 1.00  0  0  0  0
  2  3 2.00  0  0  0  0
  2 18 1.00  0  0  0  0
  3  4 1.00  0  0  0  0
  3 19 1.00  0  0  0  0
  4  5 2.00  0  0  0  0
  4  6 1.00  0  0  0  0
  6  7 1.00  0  0  0  0
  6 11 1.00  0  0  0  0
  6 20 1.00  0  0  0  0
  7 14 1.00  0  0  0  0
  8  7 2.00  0  0  0  0
  8  9 1.00  0  0  0  0
  8 21 1.00  0  0  0  0
  9 10 1.00  0  0  0  0
  9 22 1.00  0  0  0  0
  9 23 1.00  0  0  0  0
 10 11 1.00  0  0  0  0
 10 24 1.00  0  0  0  0
 10 25 1.00  0  0  0  0
 11 12 1.00  0  0  0  0
 11 13 1.00  0  0  0  0
 12 26 1.00  0  0  0  0
 12 27 1.00  0  0  0  0
 12 28 1.00  0  0  0  0
 13 29 1.00  0  0  0  0
 13 30 1.00  0  0  0  0
 13 31 1.00  0  0  0  0
 14 32 1.00  0  0  0  0
 14 33 1.00  0  0  0  0
 14 34 1.00  0  0  0  0
M  END

