Test
 OpenBabel06132514163D

 34 35  0     0  0  0  0  0  0999 V2000
    1.0504    0.0150    0.0309 C   0  0  0  0  0  0  0  0  0  0  0  0
    2.5898    0.0533    0.0106 C   0  0  0  0  0  0  0  0  0  0  0  0
    3.1454   -0.5699    1.3046 C   0  0  0  0  0  0  0  0  0  0  0  0
    2.9610    0.3492    2.5263 C   0  0  0  0  0  0  0  0  0  0  0  0
    3.7057    1.6756    2.2861 C   0  0  0  0  0  0  0  0  0  0  0  0
    3.5396    2.2441    0.8645 C   0  0  0  0  0  0  0  0  0  0  0  0
    3.0718    1.5069   -0.1520 C   0  0  0  0  0  0  0  0  0  0  0  0
    2.9458    2.1328   -1.5534 C   0  0  0  0  0  0  0  0  0  0  0  0
    3.2882    3.6161   -1.7863 C   0  0  0  0  0  0  0  0  0  0  0  0
    3.9576    4.3502   -0.6096 C   0  0  0  0  0  0  0  0  0  0  0  0
    4.0261    3.7031    0.7862 C   0  0  0  0  0  0  0  0  0  0  0  0
    1.9999    4.3592   -2.1857 C   0  0  0  0  0  0  0  0  0  0  0  0
    1.9497    4.9560   -3.2256 O   0  0  0  0  0  0  0  0  0  0  0  0
    3.0898   -0.8357   -1.1433 C   0  0  0  0  0  0  0  0  0  0  0  0
    0.6648    0.4172   -0.9059 H   0  0  0  0  0  0  0  0  0  0  0  0
    0.6786    0.6132    0.8628 H   0  0  0  0  0  0  0  0  0  0  0  0
    0.7143   -1.0155    0.1458 H   0  0  0  0  0  0  0  0  0  0  0  0
    4.2088   -0.7394    1.1356 H   0  0  0  0  0  0  0  0  0  0  0  0
    2.6427   -1.5214    1.4778 H   0  0  0  0  0  0  0  0  0  0  0  0
    3.3780   -0.1457    3.4034 H   0  0  0  0  0  0  0  0  0  0  0  0
    1.9024    0.5505    2.6911 H   0  0  0  0  0  0  0  0  0  0  0  0
    4.7591    1.4613    2.4660 H   0  0  0  0  0  0  0  0  0  0  0  0
    3.3566    2.4140    3.0079 H   0  0  0  0  0  0  0  0  0  0  0  0
    1.9237    1.9439   -1.8815 H   0  0  0  0  0  0  0  0  0  0  0  0
    3.6258    1.5183   -2.1435 H   0  0  0  0  0  0  0  0  0  0  0  0
    3.9692    3.5904   -2.6371 H   0  0  0  0  0  0  0  0  0  0  0  0
    3.4509    5.3002   -0.4396 H   0  0  0  0  0  0  0  0  0  0  0  0
    5.0047    4.5358   -0.8484 H   0  0  0  0  0  0  0  0  0  0  0  0
    3.4317    4.2895    1.4868 H   0  0  0  0  0  0  0  0  0  0  0  0
    5.0685    3.7036    1.1047 H   0  0  0  0  0  0  0  0  0  0  0  0
    1.1423    4.3636   -1.5129 H   0  0  0  0  0  0  0  0  0  0  0  0
    4.1794   -0.8523   -1.1696 H   0  0  0  0  0  0  0  0  0  0  0  0
    2.7084   -0.4409   -2.0850 H   0  0  0  0  0  0  0  0  0  0  0  0
    2.7141   -1.8481   -0.9953 H   0  0  0  0  0  0  0  0  0  0  0  0
  1  2 1.00  0  0  0  0
  1 15 1.00  0  0  0  0
  1 16 1.00  0  0  0  0
  1 17 1.00  0  0  0  0
  2  3 1.00  0  0  0  0
  2  7 1.00  0  0  0  0
  2 14 1.00  0  0  0  0
  3  4 1.00  0  0  0  0
  3 18 1.00  0  0  0  0
  3 19 1.00  0  0  0  0
  4  5 1.00  0  0  0  0
  4 20 1.00  0  0  0  0
  4 21 1.00  0  0  0  0
  5  6 1.00  0  0  0  0
  5 22 1.00  0  0  0  0
  5 23 1.00  0  0  0  0
  6  7 2.00  0  0  0  0
  6 11 1.00  0  0  0  0
  8  7 1.00  0  0  0  0
  8  9 1.00  0  0  0  0
  8 24 1.00  0  0  0  0
  8 25 1.00  0  0  0  0
  9 10 1.00  0  0  0  0
  9 12 1.00  0  0  0  0
  9 26 1.00  0  0  0  0
 10 11 1.00  0  0  0  0
 10 27 1.00  0  0  0  0
 10 28 1.00  0  0  0  0
 11 29 1.00  0  0  0  0
 11 30 1.00  0  0  0  0
 12 13 2.00  0  0  0  0
 12 31 1.00  0  0  0  0
 14 32 1.00  0  0  0  0
 14 33 1.00  0  0  0  0
 14 34 1.00  0  0  0  0
M  END

