
 OpenBabel06202508513D

 35 35  0  0  1  0  0  0  0  0999 V2000
    2.9651   -0.9776   -1.0182 C   0  0  0  0  0  0  0  0  0  0  0  0
    2.4643   -0.0426    0.0713 C   0  0  2  0  0  0  0  0  0  0  0  0
    1.0429   -0.0368    0.0720 O   0  0  0  0  0  0  0  0  0  0  0  0
    2.9710    1.3704   -0.1678 C   0  0  0  0  0  0  0  0  0  0  0  0
    3.4056    2.5824   -0.3729 C   0  0  0  0  0  0  0  0  0  0  0  0
    3.9469    4.0105   -0.5852 C   0  0  0  0  0  0  0  0  0  0  0  0
    4.3526    5.1330   -0.7588 C   0  0  0  0  0  0  0  0  0  0  0  0
    4.7746    6.4820   -1.0030 C   0  0  0  0  0  0  0  0  0  0  0  0
    4.1361    7.5421   -0.3682 C   0  0  0  0  0  0  0  0  0  0  0  0
    4.4681    8.8646   -0.6916 C   0  0  0  0  0  0  0  0  0  0  0  0
    5.4444    9.1756   -1.6586 C   0  0  0  0  0  0  0  0  0  0  0  0
    6.1267    8.0896   -2.2363 C   0  0  0  0  0  0  0  0  0  0  0  0
    5.7924    6.7596   -1.9146 C   0  0  0  0  0  0  0  0  0  0  0  0
    5.7276   10.6309   -2.0916 C   0  0  0  0  0  0  0  0  0  0  0  0
    4.8049   11.6420   -1.3698 C   0  0  0  0  0  0  0  0  0  0  0  0
    7.1874   11.0294   -1.7913 C   0  0  0  0  0  0  0  0  0  0  0  0
    5.4902   10.8177   -3.6066 C   0  0  0  0  0  0  0  0  0  0  0  0
    4.0591   -1.0107   -1.0449 H   0  0  0  0  0  0  0  0  0  0  0  0
    2.6091   -0.6605   -2.0056 H   0  0  0  0  0  0  0  0  0  0  0  0
    2.5862   -1.9923   -0.8571 H   0  0  0  0  0  0  0  0  0  0  0  0
    2.8040   -0.3893    1.0524 H   0  0  0  0  0  0  0  0  0  0  0  0
    0.7597    0.3616   -0.7684 H   0  0  0  0  0  0  0  0  0  0  0  0
    3.3533    7.3619    0.3653 H   0  0  0  0  0  0  0  0  0  0  0  0
    3.9159    9.6425   -0.1725 H   0  0  0  0  0  0  0  0  0  0  0  0
    6.9160    8.2559   -2.9649 H   0  0  0  0  0  0  0  0  0  0  0  0
    6.3238    5.9449   -2.4026 H   0  0  0  0  0  0  0  0  0  0  0  0
    4.9684   11.6268   -0.2855 H   0  0  0  0  0  0  0  0  0  0  0  0
    3.7476   11.4160   -1.5589 H   0  0  0  0  0  0  0  0  0  0  0  0
    4.9779   12.6684   -1.7092 H   0  0  0  0  0  0  0  0  0  0  0  0
    7.4067   10.9755   -0.7196 H   0  0  0  0  0  0  0  0  0  0  0  0
    7.3853   12.0590   -2.1177 H   0  0  0  0  0  0  0  0  0  0  0  0
    7.9059   10.3870   -2.3127 H   0  0  0  0  0  0  0  0  0  0  0  0
    4.4568   10.5689   -3.8847 H   0  0  0  0  0  0  0  0  0  0  0  0
    6.1568   10.1974   -4.2145 H   0  0  0  0  0  0  0  0  0  0  0  0
    5.6644   11.8597   -3.9041 H   0  0  0  0  0  0  0  0  0  0  0  0
  1 18  1  0  0  0  0
  1 19  1  0  0  0  0
  1 20  1  0  0  0  0
  2  4  1  0  0  0  0
  2  3  1  0  0  0  0
  2  1  1  0  0  0  0
  2 21  1  1  0  0  0
  3 22  1  0  0  0  0
  4  5  3  0  0  0  0
  5  6  1  0  0  0  0
  6  7  3  0  0  0  0
  7  8  1  0  0  0  0
  8  9  1  0  0  0  0
  8 13  2  0  0  0  0
  9 10  2  0  0  0  0
  9 23  1  0  0  0  0
 10 11  1  0  0  0  0
 10 24  1  0  0  0  0
 11 12  2  0  0  0  0
 11 14  1  0  0  0  0
 12 13  1  0  0  0  0
 12 25  1  0  0  0  0
 13 26  1  0  0  0  0
 14 15  1  0  0  0  0
 14 16  1  0  0  0  0
 14 17  1  0  0  0  0
 15 27  1  0  0  0  0
 15 28  1  0  0  0  0
 15 29  1  0  0  0  0
 16 30  1  0  0  0  0
 16 31  1  0  0  0  0
 16 32  1  0  0  0  0
 17 33  1  0  0  0  0
 17 34  1  0  0  0  0
 17 35  1  0  0  0  0
M  END
$$$$
