Test
 OpenBabel07242500263D

 30 30  0     0  0  0  0  0  0999 V2000
   11.5038    3.1321    4.3950 C   0  0  0  0  0  0  0  0  0  0  0  0
   11.3981    1.5960    4.3633 C   0  0  0  0  0  0  0  0  0  0  0  0
    9.9734    1.1444    3.9919 C   0  0  0  0  0  0  0  0  0  0  0  0
    9.9024   -0.3937    3.9661 C   0  0  0  0  0  0  0  0  0  0  0  0
    8.4777   -0.8396    3.5882 C   0  0  0  0  0  0  0  0  0  0  0  0
    8.4053   -2.3778    3.5685 C   0  0  0  0  0  0  0  0  0  0  0  0
    6.9810   -2.8215    3.1863 C   0  0  0  0  0  0  0  0  0  0  0  0
    6.8917   -4.3587    3.1620 C   0  0  0  0  0  0  0  0  0  0  0  0
    6.4143   -4.7198    4.5809 C   0  0  0  0  0  0  0  0  0  0  0  0
    5.6573   -3.4560    5.0296 C   0  0  0  0  0  0  0  0  0  0  0  0
    5.4504   -3.2630    6.1957 O   0  0  0  0  0  0  0  0  0  0  0  0
    6.0586   -2.3748    4.1835 O   0  0  0  0  0  0  0  0  0  0  0  0
   12.5206    3.4188    4.6635 H   0  0  0  0  0  0  0  0  0  0  0  0
   10.8061    3.5355    5.1289 H   0  0  0  0  0  0  0  0  0  0  0  0
   11.2644    3.5320    3.4098 H   0  0  0  0  0  0  0  0  0  0  0  0
   11.6524    1.1950    5.3444 H   0  0  0  0  0  0  0  0  0  0  0  0
   12.0997    1.2102    3.6237 H   0  0  0  0  0  0  0  0  0  0  0  0
    9.7373    1.5375    3.0030 H   0  0  0  0  0  0  0  0  0  0  0  0
    9.2665    1.5432    4.7194 H   0  0  0  0  0  0  0  0  0  0  0  0
   10.1555   -0.7820    4.9527 H   0  0  0  0  0  0  0  0  0  0  0  0
   10.6088   -0.7798    3.2312 H   0  0  0  0  0  0  0  0  0  0  0  0
    8.2265   -0.4495    2.6019 H   0  0  0  0  0  0  0  0  0  0  0  0
    7.7701   -0.4542    4.3223 H   0  0  0  0  0  0  0  0  0  0  0  0
    8.6625   -2.7672    4.5535 H   0  0  0  0  0  0  0  0  0  0  0  0
    9.1111   -2.7610    2.8315 H   0  0  0  0  0  0  0  0  0  0  0  0
    6.6871   -2.4244    2.2147 H   0  0  0  0  0  0  0  0  0  0  0  0
    7.8776   -4.7893    2.9871 H   0  0  0  0  0  0  0  0  0  0  0  0
    6.1402   -4.6687    2.4358 H   0  0  0  0  0  0  0  0  0  0  0  0
    7.2533   -4.9111    5.2500 H   0  0  0  0  0  0  0  0  0  0  0  0
    5.7395   -5.5757    4.5940 H   0  0  0  0  0  0  0  0  0  0  0  0
  1  2 1.00  0  0  0  0
  1 13 1.00  0  0  0  0
  1 14 1.00  0  0  0  0
  1 15 1.00  0  0  0  0
  2  3 1.00  0  0  0  0
  2 16 1.00  0  0  0  0
  2 17 1.00  0  0  0  0
  3  4 1.00  0  0  0  0
  3 18 1.00  0  0  0  0
  3 19 1.00  0  0  0  0
  4  5 1.00  0  0  0  0
  4 20 1.00  0  0  0  0
  4 21 1.00  0  0  0  0
  5  6 1.00  0  0  0  0
  5 22 1.00  0  0  0  0
  5 23 1.00  0  0  0  0
  6 24 1.00  0  0  0  0
  6 25 1.00  0  0  0  0
  6  7 1.00  0  0  0  0
  7  8 1.00  0  0  0  0
  7 12 1.00  0  0  0  0
  7 26 1.00  0  0  0  0
  8  9 1.00  0  0  0  0
  8 27 1.00  0  0  0  0
  8 28 1.00  0  0  0  0
  9 10 1.00  0  0  0  0
  9 29 1.00  0  0  0  0
  9 30 1.00  0  0  0  0
 10 11 2.00  0  0  0  0
 10 12 1.00  0  0  0  0
M  END

