
 OpenBabel05022507243D

 34 34  0  0  0  0  0  0  0  0999 V2000
    2.8079   -0.8503   -0.5916 C   0  0  0  0  0  0  0  0  0  0  0  0
    1.4516   -0.2605   -0.2942 C   0  0  0  0  0  0  0  0  0  0  0  0
    0.3273   -0.9823   -0.0587 C   0  0  0  0  0  0  0  0  0  0  0  0
   -1.0741   -0.3186   -0.0232 C   0  0  0  0  0  0  0  0  0  0  0  0
   -1.0115    1.1534   -0.5093 C   0  0  0  0  0  0  0  0  0  0  0  0
    0.1546    1.9072    0.1033 C   0  0  0  0  0  0  0  0  0  0  0  0
    1.4646    1.2546   -0.3168 C   0  0  0  0  0  0  0  0  0  0  0  0
   -2.0695   -1.0345   -0.9704 C   0  0  0  0  0  0  0  0  0  0  0  0
   -1.6609   -0.3542    1.4044 C   0  0  0  0  0  0  0  0  0  0  0  0
    0.3556   -2.4357    0.0861 C   0  0  0  0  0  0  0  0  0  0  0  0
    1.0032   -3.2001    0.9818 C   0  0  0  0  0  0  0  0  0  0  0  0
    1.8884   -2.7728    2.1064 C   0  0  0  0  0  0  0  0  0  0  0  0
    1.8702   -1.6397    2.5771 O   0  0  0  0  0  0  0  0  0  0  0  0
    2.8057   -3.8392    2.6564 C   0  0  0  0  0  0  0  0  0  0  0  0
    2.7657   -1.9062   -0.8713 H   0  0  0  0  0  0  0  0  0  0  0  0
    3.4772   -0.7369    0.2658 H   0  0  0  0  0  0  0  0  0  0  0  0
    3.2562   -0.3308   -1.4467 H   0  0  0  0  0  0  0  0  0  0  0  0
   -1.9477    1.6788   -0.2801 H   0  0  0  0  0  0  0  0  0  0  0  0
   -0.9071    1.1846   -1.6045 H   0  0  0  0  0  0  0  0  0  0  0  0
    0.0718    1.9239    1.1967 H   0  0  0  0  0  0  0  0  0  0  0  0
    0.1448    2.9531   -0.2250 H   0  0  0  0  0  0  0  0  0  0  0  0
    2.2614    1.6241    0.3412 H   0  0  0  0  0  0  0  0  0  0  0  0
    1.7122    1.5822   -1.3345 H   0  0  0  0  0  0  0  0  0  0  0  0
   -1.6419   -1.1551   -1.9737 H   0  0  0  0  0  0  0  0  0  0  0  0
   -2.9987   -0.4622   -1.0749 H   0  0  0  0  0  0  0  0  0  0  0  0
   -2.3493   -2.0272   -0.6012 H   0  0  0  0  0  0  0  0  0  0  0  0
   -0.9981    0.1198    2.1332 H   0  0  0  0  0  0  0  0  0  0  0  0
   -1.8410   -1.3824    1.7418 H   0  0  0  0  0  0  0  0  0  0  0  0
   -2.6257    0.1682    1.4436 H   0  0  0  0  0  0  0  0  0  0  0  0
   -0.2550   -2.9672   -0.6426 H   0  0  0  0  0  0  0  0  0  0  0  0
    0.8969   -4.2786    0.9008 H   0  0  0  0  0  0  0  0  0  0  0  0
    2.2181   -4.6721    3.0526 H   0  0  0  0  0  0  0  0  0  0  0  0
    3.4114   -3.4265    3.4687 H   0  0  0  0  0  0  0  0  0  0  0  0
    3.4784   -4.1938    1.8703 H   0  0  0  0  0  0  0  0  0  0  0  0
  1  2  1  0  0  0  0
  1 15  1  0  0  0  0
  1 16  1  0  0  0  0
  1 17  1  0  0  0  0
  2  3  2  0  0  0  0
  2  7  1  0  0  0  0
  3  4  1  0  0  0  0
  3 10  1  0  0  0  0
  4  5  1  0  0  0  0
  4  8  1  0  0  0  0
  4  9  1  0  0  0  0
  5  6  1  0  0  0  0
  5 18  1  0  0  0  0
  5 19  1  0  0  0  0
  6  7  1  0  0  0  0
  6 20  1  0  0  0  0
  6 21  1  0  0  0  0
  7 22  1  0  0  0  0
  7 23  1  0  0  0  0
  8 24  1  0  0  0  0
  8 25  1  0  0  0  0
  8 26  1  0  0  0  0
  9 27  1  0  0  0  0
  9 28  1  0  0  0  0
  9 29  1  0  0  0  0
 10 11  2  0  0  0  0
 10 30  1  0  0  0  0
 11 12  1  0  0  0  0
 11 31  1  0  0  0  0
 12 13  2  0  0  0  0
 12 14  1  0  0  0  0
 14 32  1  0  0  0  0
 14 33  1  0  0  0  0
 14 34  1  0  0  0  0
M  END
$$$$
