
 OpenBabel01042519553D

 36 35  0  0  0  0  0  0  0  0999 V2000
    4.4805    3.1063    3.6469 C   0  0  0  0  0  0  0  0  0  0  0  0
    4.1010    1.7953    2.9790 C   0  0  0  0  0  0  0  0  0  0  0  0
    4.3485    1.8334    1.4942 C   0  0  0  0  0  0  0  0  0  0  0  0
    5.1905    1.0266    0.8288 C   0  0  0  0  0  0  0  0  0  0  0  0
    6.0319   -0.0388    1.4825 C   0  0  0  0  0  0  0  0  0  0  0  0
    6.8714   -0.8634    0.5067 C   0  0  0  0  0  0  0  0  0  0  0  0
    7.8346   -0.0171   -0.1441 O   0  0  0  0  0  0  0  0  0  0  0  0
    9.1442   -0.2881    0.0945 C   0  0  0  0  0  0  0  0  0  0  0  0
    9.5705   -1.2141    0.7690 O   0  0  0  0  0  0  0  0  0  0  0  0
   10.0317    0.7125   -0.6025 C   0  0  0  0  0  0  0  0  0  0  0  0
    9.7896    2.1446   -0.1349 C   0  0  0  0  0  0  0  0  0  0  0  0
   10.0327    2.3199    1.3666 C   0  0  0  0  0  0  0  0  0  0  0  0
    9.7888    3.7637    1.8007 C   0  0  0  0  0  0  0  0  0  0  0  0
   10.0136    3.9367    3.2939 C   0  0  0  0  0  0  0  0  0  0  0  0
    4.3213    3.0338    4.7277 H   0  0  0  0  0  0  0  0  0  0  0  0
    3.8727    3.9348    3.2695 H   0  0  0  0  0  0  0  0  0  0  0  0
    5.5353    3.3482    3.4765 H   0  0  0  0  0  0  0  0  0  0  0  0
    3.0398    1.5852    3.1534 H   0  0  0  0  0  0  0  0  0  0  0  0
    4.6614    0.9882    3.4606 H   0  0  0  0  0  0  0  0  0  0  0  0
    3.7830    2.5754    0.9327 H   0  0  0  0  0  0  0  0  0  0  0  0
    5.2870    1.1542   -0.2498 H   0  0  0  0  0  0  0  0  0  0  0  0
    5.3701   -0.7281    2.0209 H   0  0  0  0  0  0  0  0  0  0  0  0
    6.7011    0.4427    2.2063 H   0  0  0  0  0  0  0  0  0  0  0  0
    6.2422   -1.3099   -0.2698 H   0  0  0  0  0  0  0  0  0  0  0  0
    7.3436   -1.6835    1.0590 H   0  0  0  0  0  0  0  0  0  0  0  0
    9.8646    0.6252   -1.6819 H   0  0  0  0  0  0  0  0  0  0  0  0
   11.0748    0.4300   -0.4174 H   0  0  0  0  0  0  0  0  0  0  0  0
    8.7652    2.4499   -0.3784 H   0  0  0  0  0  0  0  0  0  0  0  0
   10.4605    2.8108   -0.6915 H   0  0  0  0  0  0  0  0  0  0  0  0
   11.0613    2.0275    1.6096 H   0  0  0  0  0  0  0  0  0  0  0  0
    9.3666    1.6598    1.9348 H   0  0  0  0  0  0  0  0  0  0  0  0
    8.7610    4.0565    1.5559 H   0  0  0  0  0  0  0  0  0  0  0  0
   10.4585    4.4365    1.2529 H   0  0  0  0  0  0  0  0  0  0  0  0
    9.3347    3.2986    3.8687 H   0  0  0  0  0  0  0  0  0  0  0  0
    9.8331    4.9756    3.5864 H   0  0  0  0  0  0  0  0  0  0  0  0
   11.0417    3.6789    3.5676 H   0  0  0  0  0  0  0  0  0  0  0  0
  1  2  1  0  0  0  0
  1 15  1  0  0  0  0
  1 16  1  0  0  0  0
  1 17  1  0  0  0  0
  2  3  1  0  0  0  0
  2 18  1  0  0  0  0
  2 19  1  0  0  0  0
  3  4  2  0  0  0  0
  3 20  1  0  0  0  0
  4  5  1  0  0  0  0
  4 21  1  0  0  0  0
  5  6  1  0  0  0  0
  5 22  1  0  0  0  0
  5 23  1  0  0  0  0
  6  7  1  0  0  0  0
  6 24  1  0  0  0  0
  6 25  1  0  0  0  0
  7  8  1  0  0  0  0
  8  9  2  0  0  0  0
  8 10  1  0  0  0  0
 10 11  1  0  0  0  0
 10 26  1  0  0  0  0
 10 27  1  0  0  0  0
 11 12  1  0  0  0  0
 11 28  1  0  0  0  0
 11 29  1  0  0  0  0
 12 13  1  0  0  0  0
 12 30  1  0  0  0  0
 12 31  1  0  0  0  0
 13 14  1  0  0  0  0
 13 32  1  0  0  0  0
 13 33  1  0  0  0  0
 14 34  1  0  0  0  0
 14 35  1  0  0  0  0
 14 36  1  0  0  0  0
M  END
$$$$
