
 OpenBabel12272413163D

 28 28  0  0  0  0  0  0  0  0999 V2000
    4.3848    3.4405    3.2770 C   0  0  0  0  0  0  0  0  0  0  0  0
    4.3931    2.1331    2.4980 C   0  0  0  0  0  0  0  0  0  0  0  0
    3.9006    2.3237    1.0942 C   0  0  0  0  0  0  0  0  0  0  0  0
    4.3667    1.6893    0.0056 C   0  0  0  0  0  0  0  0  0  0  0  0
    5.4206    0.6226   -0.0520 C   0  0  0  0  0  0  0  0  0  0  0  0
    6.8117    1.1440   -0.1691 C   0  0  0  0  0  0  0  0  0  0  0  0
    7.9520    0.7168    0.3994 C   0  0  0  0  0  0  0  0  0  0  0  0
    9.1612    1.5375    0.0588 C   0  0  0  0  0  0  0  0  0  0  0  0
    8.6623    2.6046   -0.9006 C   0  0  0  0  0  0  0  0  0  0  0  0
    7.1979    2.3025   -1.0071 C   0  0  0  0  0  0  0  0  0  0  0  0
    6.4278    2.9265   -1.7225 O   0  0  0  0  0  0  0  0  0  0  0  0
    8.1330   -0.4659    1.2926 C   0  0  0  0  0  0  0  0  0  0  0  0
    4.7641    3.2777    4.2909 H   0  0  0  0  0  0  0  0  0  0  0  0
    3.3690    3.8442    3.3600 H   0  0  0  0  0  0  0  0  0  0  0  0
    5.0139    4.1986    2.7965 H   0  0  0  0  0  0  0  0  0  0  0  0
    3.7444    1.4098    3.0082 H   0  0  0  0  0  0  0  0  0  0  0  0
    5.4134    1.7361    2.5057 H   0  0  0  0  0  0  0  0  0  0  0  0
    3.1107    3.0606    0.9473 H   0  0  0  0  0  0  0  0  0  0  0  0
    3.9382    1.9660   -0.9619 H   0  0  0  0  0  0  0  0  0  0  0  0
    5.2090   -0.0304   -0.9084 H   0  0  0  0  0  0  0  0  0  0  0  0
    5.3199   -0.0152    0.8343 H   0  0  0  0  0  0  0  0  0  0  0  0
    9.9370    0.9262   -0.4128 H   0  0  0  0  0  0  0  0  0  0  0  0
    9.5870    1.9943    0.9588 H   0  0  0  0  0  0  0  0  0  0  0  0
    9.1293    2.5091   -1.8849 H   0  0  0  0  0  0  0  0  0  0  0  0
    8.8147    3.6116   -0.5026 H   0  0  0  0  0  0  0  0  0  0  0  0
    7.2044   -1.0175    1.4562 H   0  0  0  0  0  0  0  0  0  0  0  0
    8.5162   -0.1529    2.2678 H   0  0  0  0  0  0  0  0  0  0  0  0
    8.8523   -1.1637    0.8474 H   0  0  0  0  0  0  0  0  0  0  0  0
  1  2  1  0  0  0  0
  1 13  1  0  0  0  0
  1 14  1  0  0  0  0
  1 15  1  0  0  0  0
  2  3  1  0  0  0  0
  2 16  1  0  0  0  0
  2 17  1  0  0  0  0
  3  4  2  0  0  0  0
  3 18  1  0  0  0  0
  4  5  1  0  0  0  0
  4 19  1  0  0  0  0
  5  6  1  0  0  0  0
  5 20  1  0  0  0  0
  5 21  1  0  0  0  0
  6  7  2  0  0  0  0
  6 10  1  0  0  0  0
  7  8  1  0  0  0  0
  7 12  1  0  0  0  0
  8  9  1  0  0  0  0
  8 22  1  0  0  0  0
  8 23  1  0  0  0  0
  9 10  1  0  0  0  0
  9 24  1  0  0  0  0
  9 25  1  0  0  0  0
 10 11  2  0  0  0  0
 12 26  1  0  0  0  0
 12 27  1  0  0  0  0
 12 28  1  0  0  0  0
M  END
$$$$
