
 OpenBabel06202508493D

 35 35  0  0  0  0  0  0  0  0999 V2000
    1.4972    0.7487    0.7465 C   0  0  0  0  0  0  0  0  0  0  0  0
    2.5577    0.0535   -0.0722 C   0  0  0  0  0  0  0  0  0  0  0  0
    2.8355   -1.1330    0.0884 O   0  0  0  0  0  0  0  0  0  0  0  0
    3.2274    0.8366   -1.1461 C   0  0  0  0  0  0  0  0  0  0  0  0
    2.8650    2.1693   -1.3610 C   0  0  0  0  0  0  0  0  0  0  0  0
    3.4103    2.8624   -2.4344 C   0  0  0  0  0  0  0  0  0  0  0  0
    4.2975    2.2201   -3.3069 C   0  0  0  0  0  0  0  0  0  0  0  0
    4.6824    0.8854   -3.0940 C   0  0  0  0  0  0  0  0  0  0  0  0
    4.1700    0.2108   -1.9847 C   0  0  0  0  0  0  0  0  0  0  0  0
    5.5427    0.2180   -4.0508 C   0  0  0  0  0  0  0  0  0  0  0  0
    6.2195   -0.3434   -4.8904 C   0  0  0  0  0  0  0  0  0  0  0  0
    7.0630   -1.0675   -5.9908 C   0  0  0  0  0  0  0  0  0  0  0  0
    7.7153   -1.6312   -6.8450 C   0  0  0  0  0  0  0  0  0  0  0  0
    8.5730   -2.3733   -7.9547 C   0  0  0  0  0  0  0  0  0  0  0  0
    9.2961   -2.9907   -8.8469 C   0  0  0  0  0  0  0  0  0  0  0  0
   10.1390   -3.7105   -9.8871 C   0  0  0  0  0  0  0  0  0  0  0  0
    9.7409   -5.1913   -9.9178 C   0  0  0  0  0  0  0  0  0  0  0  0
    9.8902   -3.0755  -11.2608 C   0  0  0  0  0  0  0  0  0  0  0  0
   11.6201   -3.5769   -9.5119 C   0  0  0  0  0  0  0  0  0  0  0  0
    1.0543    0.0437    1.4523 H   0  0  0  0  0  0  0  0  0  0  0  0
    0.7044    1.1111    0.0843 H   0  0  0  0  0  0  0  0  0  0  0  0
    1.9250    1.5810    1.3144 H   0  0  0  0  0  0  0  0  0  0  0  0
    2.1577    2.6772   -0.7098 H   0  0  0  0  0  0  0  0  0  0  0  0
    3.1277    3.8993   -2.6019 H   0  0  0  0  0  0  0  0  0  0  0  0
    4.6756    2.7718   -4.1646 H   0  0  0  0  0  0  0  0  0  0  0  0
    4.4683   -0.8161   -1.7760 H   0  0  0  0  0  0  0  0  0  0  0  0
    8.6816   -5.3141  -10.1728 H   0  0  0  0  0  0  0  0  0  0  0  0
    9.8985   -5.6668   -8.9425 H   0  0  0  0  0  0  0  0  0  0  0  0
   10.3297   -5.7439  -10.6586 H   0  0  0  0  0  0  0  0  0  0  0  0
    8.8346   -3.1475  -11.5480 H   0  0  0  0  0  0  0  0  0  0  0  0
   10.4831   -3.5701  -12.0384 H   0  0  0  0  0  0  0  0  0  0  0  0
   10.1565   -2.0119  -11.2625 H   0  0  0  0  0  0  0  0  0  0  0  0
   11.8228   -4.0137   -8.5269 H   0  0  0  0  0  0  0  0  0  0  0  0
   11.9279   -2.5254   -9.4716 H   0  0  0  0  0  0  0  0  0  0  0  0
   12.2604   -4.0853  -10.2416 H   0  0  0  0  0  0  0  0  0  0  0  0
  1  2  1  0  0  0  0
  1 20  1  0  0  0  0
  1 21  1  0  0  0  0
  1 22  1  0  0  0  0
  2  3  2  0  0  0  0
  2  4  1  0  0  0  0
  4  5  1  0  0  0  0
  4  9  2  0  0  0  0
  5  6  2  0  0  0  0
  5 23  1  0  0  0  0
  6  7  1  0  0  0  0
  6 24  1  0  0  0  0
  7  8  2  0  0  0  0
  7 25  1  0  0  0  0
  8  9  1  0  0  0  0
  8 10  1  0  0  0  0
  9 26  1  0  0  0  0
 10 11  3  0  0  0  0
 11 12  1  0  0  0  0
 12 13  3  0  0  0  0
 13 14  1  0  0  0  0
 14 15  3  0  0  0  0
 15 16  1  0  0  0  0
 16 17  1  0  0  0  0
 16 18  1  0  0  0  0
 16 19  1  0  0  0  0
 17 27  1  0  0  0  0
 17 28  1  0  0  0  0
 17 29  1  0  0  0  0
 18 30  1  0  0  0  0
 18 31  1  0  0  0  0
 18 32  1  0  0  0  0
 19 33  1  0  0  0  0
 19 34  1  0  0  0  0
 19 35  1  0  0  0  0
M  END
$$$$
