
 OpenBabel09062420263D

 13 12  0  0  1  0  0  0  0  0999 V2000
    1.0029    0.1855    0.0535 C   0  0  0  0  0  0  0  0  0  0  0  0
    2.8052    0.1388    0.2330 S   0  0  0  0  0  0  0  0  0  0  0  0
    3.3043    0.7404   -1.4167 C   0  0  1  0  0  0  0  0  0  0  0  0
    2.7896    2.4655   -1.6686 S   0  0  0  0  0  0  0  0  0  0  0  0
    4.8233    0.6564   -1.5319 C   0  0  0  0  0  0  0  0  0  0  0  0
    0.5505   -0.3245    0.9092 H   0  0  0  0  0  0  0  0  0  0  0  0
    0.6880   -0.3277   -0.8590 H   0  0  0  0  0  0  0  0  0  0  0  0
    0.6400    1.2150    0.0469 H   0  0  0  0  0  0  0  0  0  0  0  0
    2.8466    0.1117   -2.1861 H   0  0  0  0  0  0  0  0  0  0  0  0
    3.2902    2.9219   -0.5121 H   0  0  0  0  0  0  0  0  0  0  0  0
    5.3365    1.2557   -0.7700 H   0  0  0  0  0  0  0  0  0  0  0  0
    5.1633    1.0075   -2.5156 H   0  0  0  0  0  0  0  0  0  0  0  0
    5.1693   -0.3791   -1.4316 H   0  0  0  0  0  0  0  0  0  0  0  0
  1  2  1  0  0  0  0
  1  6  1  0  0  0  0
  1  7  1  0  0  0  0
  1  8  1  0  0  0  0
  2  3  1  0  0  0  0
  3  4  1  0  0  0  0
  3  5  1  0  0  0  0
  3  9  1  6  0  0  0
  4 10  1  0  0  0  0
  5 11  1  0  0  0  0
  5 12  1  0  0  0  0
  5 13  1  0  0  0  0
M  END
$$$$
