
 OpenBabel12012407293D

 33 32  0  0  0  0  0  0  0  0999 V2000
    0.8707   -0.0222   -0.0528 C   0  0  0  0  0  0  0  0  0  0  0  0
    2.3906   -0.0399   -0.0477 C   0  0  0  0  0  0  0  0  0  0  0  0
    2.9294   -1.4053    0.3763 C   0  0  0  0  0  0  0  0  0  0  0  0
    4.4582   -1.4245    0.3796 C   0  0  0  0  0  0  0  0  0  0  0  0
    4.9918   -2.7926    0.8055 C   0  0  0  0  0  0  0  0  0  0  0  0
    6.5201   -2.8148    0.8108 C   0  0  0  0  0  0  0  0  0  0  0  0
    7.0529   -4.1828    1.2380 C   0  0  0  0  0  0  0  0  0  0  0  0
    8.5815   -4.2033    1.2435 C   0  0  0  0  0  0  0  0  0  0  0  0
    9.1172   -5.5672    1.6715 C   0  0  0  0  0  0  0  0  0  0  0  0
   10.6398   -5.5919    1.6786 C   0  0  0  0  0  0  0  0  0  0  0  0
   11.0991   -6.8769    2.0749 O   0  0  0  0  0  0  0  0  0  0  0  0
    0.5036    0.9629   -0.3584 H   0  0  0  0  0  0  0  0  0  0  0  0
    0.4729   -0.2393    0.9437 H   0  0  0  0  0  0  0  0  0  0  0  0
    0.4725   -0.7653   -0.7511 H   0  0  0  0  0  0  0  0  0  0  0  0
    2.7578    0.7345    0.6358 H   0  0  0  0  0  0  0  0  0  0  0  0
    2.7572    0.2109   -1.0499 H   0  0  0  0  0  0  0  0  0  0  0  0
    2.5542   -2.1768   -0.3071 H   0  0  0  0  0  0  0  0  0  0  0  0
    2.5570   -1.6524    1.3779 H   0  0  0  0  0  0  0  0  0  0  0  0
    4.8346   -0.6537    1.0631 H   0  0  0  0  0  0  0  0  0  0  0  0
    4.8318   -1.1793   -0.6220 H   0  0  0  0  0  0  0  0  0  0  0  0
    4.6153   -3.5633    0.1217 H   0  0  0  0  0  0  0  0  0  0  0  0
    4.6171   -3.0379    1.8068 H   0  0  0  0  0  0  0  0  0  0  0  0
    6.8966   -2.0439    1.4941 H   0  0  0  0  0  0  0  0  0  0  0  0
    6.8950   -2.5706   -0.1906 H   0  0  0  0  0  0  0  0  0  0  0  0
    6.6768   -4.9540    0.5547 H   0  0  0  0  0  0  0  0  0  0  0  0
    6.6780   -4.4272    2.2394 H   0  0  0  0  0  0  0  0  0  0  0  0
    8.9567   -3.4309    1.9259 H   0  0  0  0  0  0  0  0  0  0  0  0
    8.9556   -3.9590    0.2418 H   0  0  0  0  0  0  0  0  0  0  0  0
    8.7448   -6.3506    0.9999 H   0  0  0  0  0  0  0  0  0  0  0  0
    8.7430   -5.8249    2.6700 H   0  0  0  0  0  0  0  0  0  0  0  0
   11.0471   -4.8483    2.3712 H   0  0  0  0  0  0  0  0  0  0  0  0
   11.0371   -5.3845    0.6801 H   0  0  0  0  0  0  0  0  0  0  0  0
   10.7542   -7.0481    2.9679 H   0  0  0  0  0  0  0  0  0  0  0  0
  1  2  1  0  0  0  0
  1 12  1  0  0  0  0
  1 13  1  0  0  0  0
  1 14  1  0  0  0  0
  2  3  1  0  0  0  0
  2 15  1  0  0  0  0
  2 16  1  0  0  0  0
  3  4  1  0  0  0  0
  3 17  1  0  0  0  0
  3 18  1  0  0  0  0
  4  5  1  0  0  0  0
  4 19  1  0  0  0  0
  4 20  1  0  0  0  0
  5  6  1  0  0  0  0
  5 21  1  0  0  0  0
  5 22  1  0  0  0  0
  6  7  1  0  0  0  0
  6 23  1  0  0  0  0
  6 24  1  0  0  0  0
  7  8  1  0  0  0  0
  7 25  1  0  0  0  0
  7 26  1  0  0  0  0
  8  9  1  0  0  0  0
  8 27  1  0  0  0  0
  8 28  1  0  0  0  0
  9 10  1  0  0  0  0
  9 29  1  0  0  0  0
  9 30  1  0  0  0  0
 10 11  1  0  0  0  0
 10 31  1  0  0  0  0
 10 32  1  0  0  0  0
 11 33  1  0  0  0  0
M  END
$$$$
