
 OpenBabel08202523023D

 14 13  0  0  0  0  0  0  0  0999 V2000
    3.6560   -0.7248    1.5582 C   0  0  0  0  0  0  0  0  0  0  0  0
    3.1115    0.0596    0.0193 S   0  0  0  0  0  0  0  0  0  0  0  0
    3.4157   -1.4466   -1.3505 S   0  0  0  0  0  0  0  0  0  0  0  0
    5.2142   -1.3817   -1.5737 C   0  0  0  0  0  0  0  0  0  0  0  0
    5.7625   -2.5917   -2.8047 S   0  0  0  0  0  0  0  0  0  0  0  0
    7.5406   -2.3828   -2.5874 C   0  0  0  0  0  0  0  0  0  0  0  0
    3.4354   -0.0581    2.3942 H   0  0  0  0  0  0  0  0  0  0  0  0
    4.7361   -0.8930    1.5353 H   0  0  0  0  0  0  0  0  0  0  0  0
    3.1338   -1.6690    1.7214 H   0  0  0  0  0  0  0  0  0  0  0  0
    5.6945   -1.6164   -0.6203 H   0  0  0  0  0  0  0  0  0  0  0  0
    5.5098   -0.3814   -1.9012 H   0  0  0  0  0  0  0  0  0  0  0  0
    8.0726   -3.0323   -3.2884 H   0  0  0  0  0  0  0  0  0  0  0  0
    7.8355   -2.6593   -1.5704 H   0  0  0  0  0  0  0  0  0  0  0  0
    7.8339   -1.3469   -2.7839 H   0  0  0  0  0  0  0  0  0  0  0  0
  1  2  1  0  0  0  0
  1  7  1  0  0  0  0
  1  8  1  0  0  0  0
  1  9  1  0  0  0  0
  2  3  1  0  0  0  0
  3  4  1  0  0  0  0
  4  5  1  0  0  0  0
  4 10  1  0  0  0  0
  4 11  1  0  0  0  0
  5  6  1  0  0  0  0
  6 12  1  0  0  0  0
  6 13  1  0  0  0  0
  6 14  1  0  0  0  0
M  END
$$$$
