
 OpenBabel12272414533D

 17 17  0  0  0  0  0  0  0  0999 V2000
   -1.9383   -0.6728   -0.0081 C   0  0  0  0  0  0  0  0  0  0  0  0
   -1.9350    0.7298    0.0053 C   0  0  0  0  0  0  0  0  0  0  0  0
   -0.7234    1.4430    0.0152 C   0  0  0  0  0  0  0  0  0  0  0  0
    0.4781    0.7136    0.0088 C   0  0  0  0  0  0  0  0  0  0  0  0
    0.4565   -0.6821   -0.0027 C   0  0  0  0  0  0  0  0  0  0  0  0
   -0.7394   -1.3811   -0.0113 C   0  0  0  0  0  0  0  0  0  0  0  0
    1.6291   -1.3834   -0.0052 O   0  0  0  0  0  0  0  0  0  0  0  0
    1.7298    1.2856    0.0120 O   0  0  0  0  0  0  0  0  0  0  0  0
   -0.6467    2.9306    0.0331 C   0  0  0  0  0  0  0  0  0  0  0  0
    0.4380    3.4990    0.0398 O   0  0  0  0  0  0  0  0  0  0  0  0
   -1.8030    3.6199    0.0407 O   0  0  0  0  0  0  0  0  0  0  0  0
   -2.8813   -1.2158   -0.0159 H   0  0  0  0  0  0  0  0  0  0  0  0
   -2.9033    1.2158    0.0069 H   0  0  0  0  0  0  0  0  0  0  0  0
   -0.7353   -2.4673   -0.0208 H   0  0  0  0  0  0  0  0  0  0  0  0
    2.3282   -0.6979    0.0052 H   0  0  0  0  0  0  0  0  0  0  0  0
    1.6194    2.2654    0.0143 H   0  0  0  0  0  0  0  0  0  0  0  0
   -2.6361    3.1226    0.0389 H   0  0  0  0  0  0  0  0  0  0  0  0
  1  2  2  0  0  0  0
  1  6  1  0  0  0  0
  1 12  1  0  0  0  0
  2  3  1  0  0  0  0
  2 13  1  0  0  0  0
  3  4  2  0  0  0  0
  3  9  1  0  0  0  0
  4  5  1  0  0  0  0
  4  8  1  0  0  0  0
  5  6  2  0  0  0  0
  5  7  1  0  0  0  0
  6 14  1  0  0  0  0
  7 15  1  0  0  0  0
  8 16  1  0  0  0  0
  9 10  2  0  0  0  0
  9 11  1  0  0  0  0
 11 17  1  0  0  0  0
M  END
$$$$
