
 OpenBabel01032513343D

 18 17  0  0  0  0  0  0  0  0999 V2000
    0.9835    0.0041   -0.1018 C   0  0  0  0  0  0  0  0  0  0  0  0
    2.5029    0.0004   -0.1065 C   0  0  0  0  0  0  0  0  0  0  0  0
    3.0745    1.4005    0.1039 C   0  0  0  0  0  0  0  0  0  0  0  0
    4.5865    1.3743    0.1015 C   0  0  0  0  0  0  0  0  0  0  0  0
    5.2561    0.5574   -0.5218 O   0  0  0  0  0  0  0  0  0  0  0  0
    5.2927    2.4758    0.8843 C   0  0  0  0  0  0  0  0  0  0  0  0
    4.6270    3.3196    1.4745 O   0  0  0  0  0  0  0  0  0  0  0  0
    6.7944    2.4624    0.9056 C   0  0  0  0  0  0  0  0  0  0  0  0
    0.6036   -1.0136   -0.2358 H   0  0  0  0  0  0  0  0  0  0  0  0
    0.5910    0.6233   -0.9146 H   0  0  0  0  0  0  0  0  0  0  0  0
    0.5937    0.3900    0.8455 H   0  0  0  0  0  0  0  0  0  0  0  0
    2.8581   -0.4162   -1.0564 H   0  0  0  0  0  0  0  0  0  0  0  0
    2.8656   -0.6664    0.6854 H   0  0  0  0  0  0  0  0  0  0  0  0
    2.7159    1.7892    1.0622 H   0  0  0  0  0  0  0  0  0  0  0  0
    2.7465    2.0801   -0.6912 H   0  0  0  0  0  0  0  0  0  0  0  0
    7.2107    1.6616    0.2936 H   0  0  0  0  0  0  0  0  0  0  0  0
    7.1345    2.3218    1.9351 H   0  0  0  0  0  0  0  0  0  0  0  0
    7.1628    3.4151    0.5170 H   0  0  0  0  0  0  0  0  0  0  0  0
  1  2  1  0  0  0  0
  1  9  1  0  0  0  0
  1 10  1  0  0  0  0
  1 11  1  0  0  0  0
  2  3  1  0  0  0  0
  2 12  1  0  0  0  0
  2 13  1  0  0  0  0
  3  4  1  0  0  0  0
  3 14  1  0  0  0  0
  3 15  1  0  0  0  0
  4  5  2  0  0  0  0
  4  6  1  0  0  0  0
  6  7  2  0  0  0  0
  6  8  1  0  0  0  0
  8 16  1  0  0  0  0
  8 17  1  0  0  0  0
  8 18  1  0  0  0  0
M  END
$$$$
