
 OpenBabel12062418593D

 13 13  0  0  0  0  0  0  0  0999 V2000
   -0.6711    1.2167   -0.0000 C   0  0  0  0  0  0  0  0  0  0  0  0
   -1.3565    0.0031   -0.0010 C   0  0  0  0  0  0  0  0  0  0  0  0
   -0.6652   -1.2070   -0.0001 C   0  0  0  0  0  0  0  0  0  0  0  0
    0.7292   -1.1962   -0.0002 C   0  0  0  0  0  0  0  0  0  0  0  0
    1.4303    0.0142   -0.0005 C   0  0  0  0  0  0  0  0  0  0  0  0
    0.7246    1.2206    0.0003 C   0  0  0  0  0  0  0  0  0  0  0  0
    1.5421    2.7406    0.0026 Cl  0  0  0  0  0  0  0  0  0  0  0  0
    2.8016    0.0303   -0.0025 O   0  0  0  0  0  0  0  0  0  0  0  0
    1.5799   -2.6975    0.0011 Cl  0  0  0  0  0  0  0  0  0  0  0  0
   -3.0770   -0.0018   -0.0037 Cl  0  0  0  0  0  0  0  0  0  0  0  0
   -1.2199    2.1552    0.0000 H   0  0  0  0  0  0  0  0  0  0  0  0
   -1.2084   -2.1483    0.0002 H   0  0  0  0  0  0  0  0  0  0  0  0
    3.1166   -0.8925   -0.0078 H   0  0  0  0  0  0  0  0  0  0  0  0
  1  2  2  0  0  0  0
  1  6  1  0  0  0  0
  1 11  1  0  0  0  0
  2  3  1  0  0  0  0
  2 10  1  0  0  0  0
  3  4  2  0  0  0  0
  3 12  1  0  0  0  0
  4  5  1  0  0  0  0
  4  9  1  0  0  0  0
  5  6  2  0  0  0  0
  5  8  1  0  0  0  0
  6  7  1  0  0  0  0
  8 13  1  0  0  0  0
M  END
$$$$
