
 OpenBabel12062418503D

 16 16  0  0  0  0  0  0  0  0999 V2000
    3.1842    0.9391    0.6707 C   0  0  0  0  0  0  0  0  0  0  0  0
    2.4405   -0.0225   -0.0738 O   0  0  0  0  0  0  0  0  0  0  0  0
    3.1625   -1.0462   -0.6300 C   0  0  0  0  0  0  0  0  0  0  0  0
    4.0831   -1.8551    0.0581 C   0  0  0  0  0  0  0  0  0  0  0  0
    4.7324   -2.9066   -0.5987 C   0  0  0  0  0  0  0  0  0  0  0  0
    4.4423   -3.1869   -1.9312 C   0  0  0  0  0  0  0  0  0  0  0  0
    3.5053   -2.4274   -2.6193 C   0  0  0  0  0  0  0  0  0  0  0  0
    2.8692   -1.3654   -1.9713 C   0  0  0  0  0  0  0  0  0  0  0  0
    1.7072   -0.4586   -2.8776 Cl  0  0  0  0  0  0  0  0  0  0  0  0
    5.2279   -4.4977   -2.7175 Cl  0  0  0  0  0  0  0  0  0  0  0  0
    4.4287   -1.6870    1.7434 Cl  0  0  0  0  0  0  0  0  0  0  0  0
    2.7420    1.9235    0.4896 H   0  0  0  0  0  0  0  0  0  0  0  0
    4.2399    0.9895    0.3815 H   0  0  0  0  0  0  0  0  0  0  0  0
    3.0795    0.7329    1.7395 H   0  0  0  0  0  0  0  0  0  0  0  0
    5.4453   -3.5264   -0.0608 H   0  0  0  0  0  0  0  0  0  0  0  0
    3.2639   -2.6627   -3.6533 H   0  0  0  0  0  0  0  0  0  0  0  0
  1  2  1  0  0  0  0
  1 12  1  0  0  0  0
  1 13  1  0  0  0  0
  1 14  1  0  0  0  0
  2  3  1  0  0  0  0
  3  4  2  0  0  0  0
  3  8  1  0  0  0  0
  4  5  1  0  0  0  0
  4 11  1  0  0  0  0
  5  6  2  0  0  0  0
  5 15  1  0  0  0  0
  6  7  1  0  0  0  0
  6 10  1  0  0  0  0
  7  8  2  0  0  0  0
  7 16  1  0  0  0  0
  8  9  1  0  0  0  0
M  END
$$$$
