
 OpenBabel12272415243D

 15 14  0  0  0  0  0  0  0  0999 V2000
    1.0861   -0.0630   -0.0492 C   0  0  0  0  0  0  0  0  0  0  0  0
    2.5788   -0.0434   -0.0543 C   0  0  0  0  0  0  0  0  0  0  0  0
    3.2915    1.0558   -0.3410 C   0  0  0  0  0  0  0  0  0  0  0  0
    4.7377    1.0867   -0.3491 C   0  0  0  0  0  0  0  0  0  0  0  0
    5.4482    2.1875   -0.6362 C   0  0  0  0  0  0  0  0  0  0  0  0
    6.9801    2.2098   -0.6420 C   0  0  0  0  0  0  0  0  0  0  0  0
    7.5624    1.1265   -0.3595 O   0  0  0  0  0  0  0  0  0  0  0  0
    7.4699    3.3382   -0.9363 O   0  5  0  0  0  0  0  0  0  0  0  0
    0.7234   -1.0629    0.2116 H   0  0  0  0  0  0  0  0  0  0  0  0
    0.6877    0.1875   -1.0373 H   0  0  0  0  0  0  0  0  0  0  0  0
    0.6877    0.6382    0.6907 H   0  0  0  0  0  0  0  0  0  0  0  0
    3.0889   -0.9726    0.1880 H   0  0  0  0  0  0  0  0  0  0  0  0
    2.7805    1.9850   -0.5834 H   0  0  0  0  0  0  0  0  0  0  0  0
    5.2727    0.1688   -0.1097 H   0  0  0  0  0  0  0  0  0  0  0  0
    4.9668    3.1285   -0.8816 H   0  0  0  0  0  0  0  0  0  0  0  0
  1  2  1  0  0  0  0
  1  9  1  0  0  0  0
  1 10  1  0  0  0  0
  1 11  1  0  0  0  0
  2  3  2  3  0  0  0
  2 12  1  0  0  0  0
  3  4  1  0  0  0  0
  3 13  1  0  0  0  0
  4  5  2  3  0  0  0
  4 14  1  0  0  0  0
  5  6  1  0  0  0  0
  5 15  1  0  0  0  0
  6  7  2  0  0  0  0
  6  8  1  0  0  0  0
M  CHG  1   8  -1
M  END
$$$$
