
 OpenBabel10142509333D

 36 38  0  0  0  0  0  0  0  0999 V2000
    0.8762    0.0685   -0.4911 C   0  0  0  0  0  0  0  0  0  0  0  0
    2.4042    0.0615   -0.3051 C   0  0  0  0  0  0  0  0  0  0  0  0
    2.9544    0.2988    1.5978 Si  0  0  0  0  0  0  0  0  0  0  0  0
    2.4231   -1.1729    2.7348 C   0  0  0  0  0  0  0  0  0  0  0  0
    2.9286   -2.5600    2.4344 C   0  0  0  0  0  0  0  0  0  0  0  0
    1.4685   -2.2408    2.2856 C   0  0  0  0  0  0  0  0  0  0  0  0
    4.8967    0.2182    1.6859 C   0  0  0  0  0  0  0  0  0  0  0  0
    5.5344    0.2970    3.0525 C   0  0  0  0  0  0  0  0  0  0  0  0
    5.6548    1.4543    2.1013 C   0  0  0  0  0  0  0  0  0  0  0  0
    2.3765    1.8409    2.5280 C   0  0  0  0  0  0  0  0  0  0  0  0
    0.8998    2.0939    2.6818 C   0  0  0  0  0  0  0  0  0  0  0  0
    1.7371    3.0042    1.8258 C   0  0  0  0  0  0  0  0  0  0  0  0
    2.8999   -1.1649   -0.8928 O   0  0  0  0  0  0  0  0  0  0  0  0
    3.0049    1.1826   -1.1812 C   0  0  0  0  0  0  0  0  0  0  0  0
    0.3958   -0.7742    0.0108 H   0  0  0  0  0  0  0  0  0  0  0  0
    0.6187   -0.0393   -1.5520 H   0  0  0  0  0  0  0  0  0  0  0  0
    0.4143    0.9888   -0.1251 H   0  0  0  0  0  0  0  0  0  0  0  0
    2.3943   -0.8685    3.7746 H   0  0  0  0  0  0  0  0  0  0  0  0
    3.2184   -3.1881    3.2716 H   0  0  0  0  0  0  0  0  0  0  0  0
    3.5048   -2.7536    1.5369 H   0  0  0  0  0  0  0  0  0  0  0  0
    0.7816   -2.6334    3.0306 H   0  0  0  0  0  0  0  0  0  0  0  0
    1.0620   -2.2802    1.2870 H   0  0  0  0  0  0  0  0  0  0  0  0
    5.3316   -0.4232    0.9306 H   0  0  0  0  0  0  0  0  0  0  0  0
    6.4243   -0.2965    3.2362 H   0  0  0  0  0  0  0  0  0  0  0  0
    4.9212    0.4312    3.9372 H   0  0  0  0  0  0  0  0  0  0  0  0
    6.6253    1.6312    1.6477 H   0  0  0  0  0  0  0  0  0  0  0  0
    5.1303    2.3712    2.3436 H   0  0  0  0  0  0  0  0  0  0  0  0
    2.9814    2.0402    3.4062 H   0  0  0  0  0  0  0  0  0  0  0  0
    0.5490    2.4804    3.6339 H   0  0  0  0  0  0  0  0  0  0  0  0
    0.1769    1.4522    2.1917 H   0  0  0  0  0  0  0  0  0  0  0  0
    1.9598    3.9960    2.2042 H   0  0  0  0  0  0  0  0  0  0  0  0
    1.5402    2.9927    0.7642 H   0  0  0  0  0  0  0  0  0  0  0  0
    2.5004   -1.9122   -0.4166 H   0  0  0  0  0  0  0  0  0  0  0  0
    2.7032    2.1823   -0.8575 H   0  0  0  0  0  0  0  0  0  0  0  0
    2.6878    1.0650   -2.2256 H   0  0  0  0  0  0  0  0  0  0  0  0
    4.0991    1.1408   -1.1895 H   0  0  0  0  0  0  0  0  0  0  0  0
  1  2  1  0  0  0  0
  1 15  1  0  0  0  0
  1 16  1  0  0  0  0
  1 17  1  0  0  0  0
  2  3  1  0  0  0  0
  2 13  1  0  0  0  0
  2 14  1  0  0  0  0
  3  4  1  0  0  0  0
  3  7  1  0  0  0  0
  3 10  1  0  0  0  0
  4  5  1  0  0  0  0
  4  6  1  0  0  0  0
  4 18  1  0  0  0  0
  5  6  1  0  0  0  0
  5 19  1  0  0  0  0
  5 20  1  0  0  0  0
  6 21  1  0  0  0  0
  6 22  1  0  0  0  0
  7  8  1  0  0  0  0
  7  9  1  0  0  0  0
  7 23  1  0  0  0  0
  8  9  1  0  0  0  0
  8 24  1  0  0  0  0
  8 25  1  0  0  0  0
  9 26  1  0  0  0  0
  9 27  1  0  0  0  0
 10 11  1  0  0  0  0
 10 12  1  0  0  0  0
 10 28  1  0  0  0  0
 11 12  1  0  0  0  0
 11 29  1  0  0  0  0
 11 30  1  0  0  0  0
 12 31  1  0  0  0  0
 12 32  1  0  0  0  0
 13 33  1  0  0  0  0
 14 34  1  0  0  0  0
 14 35  1  0  0  0  0
 14 36  1  0  0  0  0
M  END
$$$$
