
 OpenBabel01032513263D

 16 17  0  0  0  0  0  0  0  0999 V2000
    1.0662    1.3505    0.0264 C   0  0  0  0  0  0  0  0  0  0  0  0
   -0.2944    0.7862    0.0080 C   0  0  0  0  0  0  0  0  0  0  0  0
   -1.5292    1.4068    0.0040 C   0  0  0  0  0  0  0  0  0  0  0  0
   -2.6680    0.5970    0.0059 C   0  0  0  0  0  0  0  0  0  0  0  0
   -2.5522   -0.8037    0.0107 C   0  0  0  0  0  0  0  0  0  0  0  0
   -1.2950   -1.4109    0.0072 C   0  0  0  0  0  0  0  0  0  0  0  0
   -0.1840   -0.5918    0.0047 C   0  0  0  0  0  0  0  0  0  0  0  0
    1.1169   -1.0598    0.0029 O   0  0  0  0  0  0  0  0  0  0  0  0
    1.9077    0.0871    0.0094 C   0  0  0  0  0  0  0  0  0  0  0  0
    3.1316    0.0630    0.0054 O   0  0  0  0  0  0  0  0  0  0  0  0
    1.2556    1.9043    0.9493 H   0  0  0  0  0  0  0  0  0  0  0  0
    1.2703    1.9459   -0.8664 H   0  0  0  0  0  0  0  0  0  0  0  0
   -1.6196    2.4885    0.0027 H   0  0  0  0  0  0  0  0  0  0  0  0
   -3.6557    1.0536    0.0068 H   0  0  0  0  0  0  0  0  0  0  0  0
   -3.4497   -1.4181    0.0179 H   0  0  0  0  0  0  0  0  0  0  0  0
   -1.1944   -2.4914    0.0085 H   0  0  0  0  0  0  0  0  0  0  0  0
  1  2  1  0  0  0  0
  1  9  1  0  0  0  0
  1 11  1  0  0  0  0
  1 12  1  0  0  0  0
  2  3  2  0  0  0  0
  2  7  1  0  0  0  0
  3  4  1  0  0  0  0
  3 13  1  0  0  0  0
  4  5  2  0  0  0  0
  4 14  1  0  0  0  0
  5  6  1  0  0  0  0
  5 15  1  0  0  0  0
  6  7  2  0  0  0  0
  6 16  1  0  0  0  0
  7  8  1  0  0  0  0
  8  9  1  0  0  0  0
  9 10  2  0  0  0  0
M  END
$$$$
