
 OpenBabel01032515143D

 31 30  0  0  0  0  0  0  0  0999 V2000
    0.9387    0.0022   -0.1222 C   0  0  0  0  0  0  0  0  0  0  0  0
    2.4572   -0.0037   -0.1133 C   0  0  0  0  0  0  0  0  0  0  0  0
    2.9951   -0.7846    1.0819 C   0  0  0  0  0  0  0  0  0  0  0  0
    4.5215   -0.7930    1.0912 C   0  0  0  0  0  0  0  0  0  0  0  0
    5.0500   -1.5774    2.2881 C   0  0  0  0  0  0  0  0  0  0  0  0
    6.5763   -1.5902    2.3075 C   0  0  0  0  0  0  0  0  0  0  0  0
    7.0860   -2.3800    3.5089 C   0  0  0  0  0  0  0  0  0  0  0  0
    8.6092   -2.4117    3.5577 C   0  0  0  0  0  0  0  0  0  0  0  0
    9.1142   -3.1972    4.7524 C   0  0  0  0  0  0  0  0  0  0  0  0
    8.3597   -3.7311    5.5672 O   0  0  0  0  0  0  0  0  0  0  0  0
   10.6051   -3.3058    4.9146 C   0  0  0  0  0  0  0  0  0  0  0  0
    0.5658    0.5643   -0.9826 H   0  0  0  0  0  0  0  0  0  0  0  0
    0.5450    0.4680    0.7873 H   0  0  0  0  0  0  0  0  0  0  0  0
    0.5450   -1.0179   -0.1835 H   0  0  0  0  0  0  0  0  0  0  0  0
    2.8245    1.0289   -0.0799 H   0  0  0  0  0  0  0  0  0  0  0  0
    2.8244   -0.4489   -1.0455 H   0  0  0  0  0  0  0  0  0  0  0  0
    2.6218   -1.8154    1.0479 H   0  0  0  0  0  0  0  0  0  0  0  0
    2.6241   -0.3377    2.0124 H   0  0  0  0  0  0  0  0  0  0  0  0
    4.8975    0.2365    1.1297 H   0  0  0  0  0  0  0  0  0  0  0  0
    4.8953   -1.2410    0.1625 H   0  0  0  0  0  0  0  0  0  0  0  0
    4.6731   -2.6071    2.2494 H   0  0  0  0  0  0  0  0  0  0  0  0
    4.6732   -1.1310    3.2168 H   0  0  0  0  0  0  0  0  0  0  0  0
    6.9549   -0.5617    2.3507 H   0  0  0  0  0  0  0  0  0  0  0  0
    6.9550   -2.0376    1.3805 H   0  0  0  0  0  0  0  0  0  0  0  0
    6.6970   -3.4052    3.4658 H   0  0  0  0  0  0  0  0  0  0  0  0
    6.6967   -1.9340    4.4330 H   0  0  0  0  0  0  0  0  0  0  0  0
    9.0038   -1.3921    3.6277 H   0  0  0  0  0  0  0  0  0  0  0  0
    9.0039   -2.8802    2.6493 H   0  0  0  0  0  0  0  0  0  0  0  0
   11.1193   -2.7771    4.1083 H   0  0  0  0  0  0  0  0  0  0  0  0
   10.8918   -4.3599    4.8840 H   0  0  0  0  0  0  0  0  0  0  0  0
   10.8940   -2.8594    5.8693 H   0  0  0  0  0  0  0  0  0  0  0  0
  1  2  1  0  0  0  0
  1 12  1  0  0  0  0
  1 13  1  0  0  0  0
  1 14  1  0  0  0  0
  2  3  1  0  0  0  0
  2 15  1  0  0  0  0
  2 16  1  0  0  0  0
  3  4  1  0  0  0  0
  3 17  1  0  0  0  0
  3 18  1  0  0  0  0
  4  5  1  0  0  0  0
  4 19  1  0  0  0  0
  4 20  1  0  0  0  0
  5  6  1  0  0  0  0
  5 21  1  0  0  0  0
  5 22  1  0  0  0  0
  6  7  1  0  0  0  0
  6 23  1  0  0  0  0
  6 24  1  0  0  0  0
  7  8  1  0  0  0  0
  7 25  1  0  0  0  0
  7 26  1  0  0  0  0
  8  9  1  0  0  0  0
  8 27  1  0  0  0  0
  8 28  1  0  0  0  0
  9 10  2  0  0  0  0
  9 11  1  0  0  0  0
 11 29  1  0  0  0  0
 11 30  1  0  0  0  0
 11 31  1  0  0  0  0
M  END
$$$$
