
 OpenBabel09032402293D

 29 28  0  0  0  0  0  0  0  0999 V2000
    2.1515    1.6152    1.0994 O   0  5  0  0  0  0  0  0  0  0  0  0
    2.9078    0.8410    0.4429 C   0  0  0  0  0  0  0  0  0  0  0  0
    3.1017    0.7598   -0.7971 O   0  0  0  0  0  0  0  0  0  0  0  0
    3.6944   -0.1335    1.3251 C   0  0  0  0  0  0  0  0  0  0  0  0
    4.5543   -1.0414    0.8339 C   0  0  0  0  0  0  0  0  0  0  0  0
    5.3232   -1.9886    1.6926 C   0  0  0  0  0  0  0  0  0  0  0  0
    6.8263   -1.7983    1.5147 C   0  0  0  0  0  0  0  0  0  0  0  0
    7.5985   -2.7717    2.3971 C   0  0  0  0  0  0  0  0  0  0  0  0
    9.0972   -2.5750    2.2186 C   0  0  0  0  0  0  0  0  0  0  0  0
    9.8694   -3.5479    3.0981 C   0  0  0  0  0  0  0  0  0  0  0  0
   11.3700   -3.3546    2.9229 C   0  0  0  0  0  0  0  0  0  0  0  0
   12.1349   -4.3262    3.8010 C   0  0  0  0  0  0  0  0  0  0  0  0
    3.5247   -0.0553    2.3949 H   0  0  0  0  0  0  0  0  0  0  0  0
    4.6977   -1.0911   -0.2443 H   0  0  0  0  0  0  0  0  0  0  0  0
    5.0480   -3.0173    1.4288 H   0  0  0  0  0  0  0  0  0  0  0  0
    5.0640   -1.8492    2.7492 H   0  0  0  0  0  0  0  0  0  0  0  0
    7.1068   -0.7685    1.7720 H   0  0  0  0  0  0  0  0  0  0  0  0
    7.1048   -1.9558    0.4646 H   0  0  0  0  0  0  0  0  0  0  0  0
    7.3271   -3.8036    2.1414 H   0  0  0  0  0  0  0  0  0  0  0  0
    7.3274   -2.6181    3.4491 H   0  0  0  0  0  0  0  0  0  0  0  0
    9.3698   -1.5444    2.4773 H   0  0  0  0  0  0  0  0  0  0  0  0
    9.3694   -2.7289    1.1673 H   0  0  0  0  0  0  0  0  0  0  0  0
    9.5942   -4.5779    2.8396 H   0  0  0  0  0  0  0  0  0  0  0  0
    9.5947   -3.3941    4.1490 H   0  0  0  0  0  0  0  0  0  0  0  0
   11.6474   -2.3266    3.1836 H   0  0  0  0  0  0  0  0  0  0  0  0
   11.6469   -3.5108    1.8737 H   0  0  0  0  0  0  0  0  0  0  0  0
   11.8880   -4.1703    4.8560 H   0  0  0  0  0  0  0  0  0  0  0  0
   13.2115   -4.1860    3.6739 H   0  0  0  0  0  0  0  0  0  0  0  0
   11.8876   -5.3601    3.5400 H   0  0  0  0  0  0  0  0  0  0  0  0
  1  2  1  0  0  0  0
  2  3  2  0  0  0  0
  2  4  1  0  0  0  0
  4  5  2  3  0  0  0
  4 13  1  0  0  0  0
  5  6  1  0  0  0  0
  5 14  1  0  0  0  0
  6  7  1  0  0  0  0
  6 15  1  0  0  0  0
  6 16  1  0  0  0  0
  7  8  1  0  0  0  0
  7 17  1  0  0  0  0
  7 18  1  0  0  0  0
  8  9  1  0  0  0  0
  8 19  1  0  0  0  0
  8 20  1  0  0  0  0
  9 10  1  0  0  0  0
  9 21  1  0  0  0  0
  9 22  1  0  0  0  0
 10 11  1  0  0  0  0
 10 23  1  0  0  0  0
 10 24  1  0  0  0  0
 11 12  1  0  0  0  0
 11 25  1  0  0  0  0
 11 26  1  0  0  0  0
 12 27  1  0  0  0  0
 12 28  1  0  0  0  0
 12 29  1  0  0  0  0
M  CHG  1   1  -1
M  END
$$$$
