
 OpenBabel10142510103D

 32 33  0  0  1  0  0  0  0  0999 V2000
    2.4224    0.1083    1.5199 C   0  0  0  0  0  0  0  0  0  0  0  0
    2.4271   -0.1270    0.0148 C   0  0  0  0  0  0  0  0  0  0  0  0
    3.0454   -1.4754   -0.3827 C   0  0  3  0  0  0  0  0  0  0  0  0
    3.0243   -1.6496   -1.9026 C   0  0  0  0  0  0  0  0  0  0  0  0
    3.7040   -2.9705   -2.2785 C   0  0  3  0  0  0  0  0  0  0  0  0
    5.2307   -2.8607   -2.1678 C   0  0  0  0  0  0  0  0  0  0  0  0
    3.1905   -4.0724   -1.3869 C   0  0  0  0  0  0  0  0  0  0  0  0
    2.5562   -3.8258   -0.2267 C   0  0  0  0  0  0  0  0  0  0  0  0
    2.3263   -2.5459    0.2546 O   0  0  0  0  0  0  0  0  0  0  0  0
    2.0043   -4.8817    0.6785 C   0  0  0  0  0  0  0  0  0  0  0  0
    2.2010   -6.3370    0.2760 C   0  0  0  0  0  0  0  0  0  0  0  0
    2.9492   -6.6315   -1.0121 C   0  0  0  0  0  0  0  0  0  0  0  0
    3.3530   -5.4649   -1.8752 C   0  0  0  0  0  0  0  0  0  0  0  0
    3.8480   -5.6698   -2.9859 O   0  0  0  0  0  0  0  0  0  0  0  0
    1.9373    1.0633    1.7474 H   0  0  0  0  0  0  0  0  0  0  0  0
    3.4432    0.1485    1.9132 H   0  0  0  0  0  0  0  0  0  0  0  0
    1.8780   -0.6784    2.0507 H   0  0  0  0  0  0  0  0  0  0  0  0
    2.9903    0.6845   -0.4623 H   0  0  0  0  0  0  0  0  0  0  0  0
    1.3941   -0.0666   -0.3466 H   0  0  0  0  0  0  0  0  0  0  0  0
    4.0744   -1.4938   -0.0062 H   0  0  0  0  0  0  0  0  0  0  0  0
    3.5047   -0.8059   -2.4099 H   0  0  0  0  0  0  0  0  0  0  0  0
    1.9804   -1.6844   -2.2500 H   0  0  0  0  0  0  0  0  0  0  0  0
    3.4490   -3.1827   -3.3251 H   0  0  0  0  0  0  0  0  0  0  0  0
    5.5579   -2.6854   -1.1373 H   0  0  0  0  0  0  0  0  0  0  0  0
    5.6051   -2.0366   -2.7837 H   0  0  0  0  0  0  0  0  0  0  0  0
    5.7212   -3.7784   -2.5080 H   0  0  0  0  0  0  0  0  0  0  0  0
    0.9274   -4.7000    0.8012 H   0  0  0  0  0  0  0  0  0  0  0  0
    2.4433   -4.7395    1.6750 H   0  0  0  0  0  0  0  0  0  0  0  0
    1.2161   -6.8205    0.2238 H   0  0  0  0  0  0  0  0  0  0  0  0
    2.7100   -6.8623    1.0961 H   0  0  0  0  0  0  0  0  0  0  0  0
    2.3300   -7.2906   -1.6330 H   0  0  0  0  0  0  0  0  0  0  0  0
    3.8666   -7.1840   -0.7761 H   0  0  0  0  0  0  0  0  0  0  0  0
  1  2  1  0  0  0  0
  1 15  1  0  0  0  0
  1 16  1  0  0  0  0
  1 17  1  0  0  0  0
  2  3  1  0  0  0  0
  2 18  1  0  0  0  0
  2 19  1  0  0  0  0
  3  4  1  0  0  0  0
  3  9  1  0  0  0  0
  3 20  1  0  0  0  0
  4  5  1  0  0  0  0
  4 21  1  0  0  0  0
  4 22  1  0  0  0  0
  5  6  1  0  0  0  0
  5  7  1  0  0  0  0
  5 23  1  0  0  0  0
  6 24  1  0  0  0  0
  6 25  1  0  0  0  0
  6 26  1  0  0  0  0
  7  8  2  0  0  0  0
  7 13  1  0  0  0  0
  8  9  1  0  0  0  0
  8 10  1  0  0  0  0
 10 11  1  0  0  0  0
 10 27  1  0  0  0  0
 10 28  1  0  0  0  0
 11 12  1  0  0  0  0
 11 29  1  0  0  0  0
 11 30  1  0  0  0  0
 12 13  1  0  0  0  0
 12 31  1  0  0  0  0
 12 32  1  0  0  0  0
 13 14  2  0  0  0  0
M  END
$$$$
