
 OpenBabel11022410123D

 24 23  0  0  1  0  0  0  0  0999 V2000
    0.8962    0.0344   -0.0463 C   0  0  0  0  0  0  0  0  0  0  0  0
    2.4188    0.0397   -0.0485 C   0  0  1  0  0  0  0  0  0  0  0  0
    2.8782   -1.2484   -0.4476 O   0  0  0  0  0  0  0  0  0  0  0  0
    2.9711    1.1144   -0.9903 C   0  0  0  0  0  0  0  0  0  0  0  0
    4.5019    1.1430   -1.0019 C   0  0  0  0  0  0  0  0  0  0  0  0
    5.0240    2.2250   -1.9482 C   0  0  0  0  0  0  0  0  0  0  0  0
    6.5511    2.2561   -1.9693 C   0  0  0  0  0  0  0  0  0  0  0  0
    7.0680    3.3305   -2.9115 C   0  0  0  0  0  0  0  0  0  0  0  0
    0.5188   -0.7502    0.6178 H   0  0  0  0  0  0  0  0  0  0  0  0
    0.5035   -0.1835   -1.0457 H   0  0  0  0  0  0  0  0  0  0  0  0
    0.4954    0.9969    0.2854 H   0  0  0  0  0  0  0  0  0  0  0  0
    2.7804    0.2157    0.9708 H   0  0  0  0  0  0  0  0  0  0  0  0
    2.6062   -1.3899   -1.3704 H   0  0  0  0  0  0  0  0  0  0  0  0
    2.5881    2.0971   -0.6887 H   0  0  0  0  0  0  0  0  0  0  0  0
    2.6172    0.9240   -2.0115 H   0  0  0  0  0  0  0  0  0  0  0  0
    4.8925    0.1682   -1.3166 H   0  0  0  0  0  0  0  0  0  0  0  0
    4.8733    1.3295    0.0129 H   0  0  0  0  0  0  0  0  0  0  0  0
    4.6400    3.2034   -1.6352 H   0  0  0  0  0  0  0  0  0  0  0  0
    4.6468    2.0392   -2.9616 H   0  0  0  0  0  0  0  0  0  0  0  0
    6.9399    1.2815   -2.2862 H   0  0  0  0  0  0  0  0  0  0  0  0
    6.9339    2.4460   -0.9597 H   0  0  0  0  0  0  0  0  0  0  0  0
    6.7280    3.1499   -3.9362 H   0  0  0  0  0  0  0  0  0  0  0  0
    8.1623    3.3402   -2.9128 H   0  0  0  0  0  0  0  0  0  0  0  0
    6.7195    4.3219   -2.6039 H   0  0  0  0  0  0  0  0  0  0  0  0
  1  2  1  0  0  0  0
  1  9  1  0  0  0  0
  1 10  1  0  0  0  0
  1 11  1  0  0  0  0
  2  3  1  0  0  0  0
  2  4  1  0  0  0  0
  2 12  1  1  0  0  0
  3 13  1  0  0  0  0
  4  5  1  0  0  0  0
  4 14  1  0  0  0  0
  4 15  1  0  0  0  0
  5  6  1  0  0  0  0
  5 16  1  0  0  0  0
  5 17  1  0  0  0  0
  6  7  1  0  0  0  0
  6 18  1  0  0  0  0
  6 19  1  0  0  0  0
  7  8  1  0  0  0  0
  7 20  1  0  0  0  0
  7 21  1  0  0  0  0
  8 22  1  0  0  0  0
  8 23  1  0  0  0  0
  8 24  1  0  0  0  0
M  END
$$$$
