
 OpenBabel09282410423D

 22 21  0  0  0  0  0  0  0  0999 V2000
    0.9413    0.0805   -0.0752 C   0  0  0  0  0  0  0  0  0  0  0  0
    2.4617    0.0617   -0.0711 C   0  0  0  0  0  0  0  0  0  0  0  0
    3.0020   -1.2921    0.3882 C   0  0  0  0  0  0  0  0  0  0  0  0
    4.5294   -1.2952    0.3890 C   0  0  0  0  0  0  0  0  0  0  0  0
    5.0955   -2.6377    0.8440 C   0  0  0  0  0  0  0  0  0  0  0  0
    6.6136   -2.6394    0.8448 C   0  0  0  0  0  0  0  0  0  0  0  0
    7.2801   -1.6589    0.5126 O   0  0  0  0  0  0  0  0  0  0  0  0
    7.2957   -3.9097    1.2753 C   0  0  0  0  0  0  0  0  0  0  0  0
    0.5757    1.0578   -0.4062 H   0  0  0  0  0  0  0  0  0  0  0  0
    0.5449   -0.1096    0.9270 H   0  0  0  0  0  0  0  0  0  0  0  0
    0.5427   -0.6799   -0.7537 H   0  0  0  0  0  0  0  0  0  0  0  0
    2.8287    0.8542    0.5919 H   0  0  0  0  0  0  0  0  0  0  0  0
    2.8261    0.2869   -1.0791 H   0  0  0  0  0  0  0  0  0  0  0  0
    2.6313   -2.0825   -0.2766 H   0  0  0  0  0  0  0  0  0  0  0  0
    2.6314   -1.5155    1.3958 H   0  0  0  0  0  0  0  0  0  0  0  0
    4.8975   -0.4989    1.0489 H   0  0  0  0  0  0  0  0  0  0  0  0
    4.8977   -1.0640   -0.6188 H   0  0  0  0  0  0  0  0  0  0  0  0
    4.7559   -3.4349    0.1743 H   0  0  0  0  0  0  0  0  0  0  0  0
    4.7557   -2.8636    1.8603 H   0  0  0  0  0  0  0  0  0  0  0  0
    6.5581   -4.6740    1.5343 H   0  0  0  0  0  0  0  0  0  0  0  0
    7.9138   -3.7048    2.1524 H   0  0  0  0  0  0  0  0  0  0  0  0
    7.9137   -4.2805    0.4542 H   0  0  0  0  0  0  0  0  0  0  0  0
  1  2  1  0  0  0  0
  1  9  1  0  0  0  0
  1 10  1  0  0  0  0
  1 11  1  0  0  0  0
  2  3  1  0  0  0  0
  2 12  1  0  0  0  0
  2 13  1  0  0  0  0
  3  4  1  0  0  0  0
  3 14  1  0  0  0  0
  3 15  1  0  0  0  0
  4  5  1  0  0  0  0
  4 16  1  0  0  0  0
  4 17  1  0  0  0  0
  5  6  1  0  0  0  0
  5 18  1  0  0  0  0
  5 19  1  0  0  0  0
  6  7  2  0  0  0  0
  6  8  1  0  0  0  0
  8 20  1  0  0  0  0
  8 21  1  0  0  0  0
  8 22  1  0  0  0  0
M  END
$$$$
