
 OpenBabel01032513343D

 19 18  0  0  0  0  0  0  0  0999 V2000
    0.9689   -0.0703   -0.0385 C   0  0  0  0  0  0  0  0  0  0  0  0
    2.4897   -0.0769   -0.0486 C   0  0  0  0  0  0  0  0  0  0  0  0
    3.0153   -1.0477   -1.1013 C   0  0  0  0  0  0  0  0  0  0  0  0
    4.5405   -1.0853   -1.1421 C   0  0  0  0  0  0  0  0  0  0  0  0
    5.0389   -2.0583   -2.1942 C   0  0  0  0  0  0  0  0  0  0  0  0
    4.2792   -2.7158   -2.9074 O   0  0  0  0  0  0  0  0  0  0  0  0
    6.5270   -2.2042   -2.3494 C   0  0  0  0  0  0  0  0  0  0  0  0
    0.5939    0.6262    0.7168 H   0  0  0  0  0  0  0  0  0  0  0  0
    0.5762   -1.0666    0.1902 H   0  0  0  0  0  0  0  0  0  0  0  0
    0.5739    0.2365   -1.0126 H   0  0  0  0  0  0  0  0  0  0  0  0
    2.8584   -0.3627    0.9433 H   0  0  0  0  0  0  0  0  0  0  0  0
    2.8561    0.9353   -0.2549 H   0  0  0  0  0  0  0  0  0  0  0  0
    2.6300   -0.7606   -2.0880 H   0  0  0  0  0  0  0  0  0  0  0  0
    2.6300   -2.0544   -0.8949 H   0  0  0  0  0  0  0  0  0  0  0  0
    4.9358   -1.3990   -0.1693 H   0  0  0  0  0  0  0  0  0  0  0  0
    4.9358   -0.0910   -1.3789 H   0  0  0  0  0  0  0  0  0  0  0  0
    7.0561   -1.5558   -1.6465 H   0  0  0  0  0  0  0  0  0  0  0  0
    6.8079   -1.9251   -3.3684 H   0  0  0  0  0  0  0  0  0  0  0  0
    6.8056   -3.2426   -2.1511 H   0  0  0  0  0  0  0  0  0  0  0  0
  1  2  1  0  0  0  0
  1  8  1  0  0  0  0
  1  9  1  0  0  0  0
  1 10  1  0  0  0  0
  2  3  1  0  0  0  0
  2 11  1  0  0  0  0
  2 12  1  0  0  0  0
  3  4  1  0  0  0  0
  3 13  1  0  0  0  0
  3 14  1  0  0  0  0
  4  5  1  0  0  0  0
  4 15  1  0  0  0  0
  4 16  1  0  0  0  0
  5  6  2  0  0  0  0
  5  7  1  0  0  0  0
  7 17  1  0  0  0  0
  7 18  1  0  0  0  0
  7 19  1  0  0  0  0
M  END
$$$$
