
 OpenBabel12162417373D

 32 33  0  0  1  0  0  0  0  0999 V2000
    0.8182   -0.0706   -0.1976 C   0  0  0  0  0  0  0  0  0  0  0  0
    2.3607   -0.0669   -0.1794 C   0  0  0  0  0  0  0  0  0  0  0  0
    2.9546    1.0802    0.6696 C   0  0  2  0  0  0  0  0  0  0  0  0
    4.4758    0.8306    0.5924 C   0  0  0  0  0  0  0  0  0  0  0  0
    4.5745   -0.7014    0.6027 C   0  0  0  0  0  0  0  0  0  0  0  0
    3.0830   -1.1447    0.7049 C   0  0  1  0  0  0  0  0  0  0  0  0
    2.5843   -0.8178    2.1597 C   0  0  1  0  0  0  0  0  0  0  0  0
    2.5074    0.7337    2.1189 C   0  0  0  0  0  0  0  0  0  0  0  0
    1.2690   -1.3467    2.3735 O   0  0  0  0  0  0  0  0  0  0  0  0
    2.8884   -2.5893    0.2576 C   0  0  0  0  0  0  0  0  0  0  0  0
    2.7815   -0.0421   -1.6661 C   0  0  0  0  0  0  0  0  0  0  0  0
    3.4371   -1.3281    3.3270 C   0  0  0  0  0  0  0  0  0  0  0  0
    0.3395    0.0626    0.7723 H   0  0  0  0  0  0  0  0  0  0  0  0
    0.4372   -1.0054   -0.6252 H   0  0  0  0  0  0  0  0  0  0  0  0
    0.4455    0.7550   -0.8163 H   0  0  0  0  0  0  0  0  0  0  0  0
    2.6716    2.0914    0.3656 H   0  0  0  0  0  0  0  0  0  0  0  0
    5.0166    1.2787    1.4319 H   0  0  0  0  0  0  0  0  0  0  0  0
    4.9026    1.2394   -0.3275 H   0  0  0  0  0  0  0  0  0  0  0  0
    5.1964   -1.0595    1.4271 H   0  0  0  0  0  0  0  0  0  0  0  0
    5.0509   -1.0653   -0.3162 H   0  0  0  0  0  0  0  0  0  0  0  0
    3.1690    1.2201    2.8446 H   0  0  0  0  0  0  0  0  0  0  0  0
    1.4931    1.0993    2.3124 H   0  0  0  0  0  0  0  0  0  0  0  0
    1.3386   -2.3172    2.4045 H   0  0  0  0  0  0  0  0  0  0  0  0
    3.2671   -2.7471   -0.7570 H   0  0  0  0  0  0  0  0  0  0  0  0
    1.8307   -2.8763    0.2581 H   0  0  0  0  0  0  0  0  0  0  0  0
    3.4237   -3.2815    0.9173 H   0  0  0  0  0  0  0  0  0  0  0  0
    3.8578   -0.1035   -1.8381 H   0  0  0  0  0  0  0  0  0  0  0  0
    2.4396    0.8835   -2.1439 H   0  0  0  0  0  0  0  0  0  0  0  0
    2.3300   -0.8814   -2.2080 H   0  0  0  0  0  0  0  0  0  0  0  0
    4.1288   -0.5673    3.7034 H   0  0  0  0  0  0  0  0  0  0  0  0
    4.0359   -2.1992    3.0378 H   0  0  0  0  0  0  0  0  0  0  0  0
    2.8127   -1.6480    4.1687 H   0  0  0  0  0  0  0  0  0  0  0  0
  1  2  1  0  0  0  0
  1 13  1  0  0  0  0
  1 14  1  0  0  0  0
  1 15  1  0  0  0  0
  2  3  1  0  0  0  0
  2  6  1  0  0  0  0
  2 11  1  0  0  0  0
  3  4  1  0  0  0  0
  3  8  1  0  0  0  0
  3 16  1  6  0  0  0
  4  5  1  0  0  0  0
  4 17  1  0  0  0  0
  4 18  1  0  0  0  0
  5  6  1  0  0  0  0
  5 19  1  0  0  0  0
  5 20  1  0  0  0  0
  6  7  1  0  0  0  0
  6 10  1  6  0  0  0
  7  8  1  0  0  0  0
  7 12  1  0  0  0  0
  7  9  1  1  0  0  0
  8 21  1  0  0  0  0
  8 22  1  0  0  0  0
  9 23  1  0  0  0  0
 10 24  1  0  0  0  0
 10 25  1  0  0  0  0
 10 26  1  0  0  0  0
 11 27  1  0  0  0  0
 11 28  1  0  0  0  0
 11 29  1  0  0  0  0
 12 30  1  0  0  0  0
 12 31  1  0  0  0  0
 12 32  1  0  0  0  0
M  END
$$$$
