
 OpenBabel02162520453D

 20 20  0  0  0  0  0  0  0  0999 V2000
    1.1262    0.0342   -0.0855 C   0  0  0  0  0  0  0  0  0  0  0  0
    2.6211    0.0544   -0.0858 C   0  0  0  0  0  0  0  0  0  0  0  0
    3.3679   -1.1173   -0.0799 C   0  0  0  0  0  0  0  0  0  0  0  0
    4.7218   -1.1347   -0.0769 N   0  0  0  0  0  0  0  0  0  0  0  0
    5.3183    0.0813   -0.0797 C   0  0  0  0  0  0  0  0  0  0  0  0
    4.5861    1.2705   -0.0862 C   0  0  0  0  0  0  0  0  0  0  0  0
    3.2242    1.2686   -0.0892 N   0  0  0  0  0  0  0  0  0  0  0  0
    5.2417    2.6171   -0.0883 C   0  0  0  0  0  0  0  0  0  0  0  0
    6.6954    0.1626   -0.0754 O   0  0  0  0  0  0  0  0  0  0  0  0
    7.3460   -1.1020   -0.0696 C   0  0  0  0  0  0  0  0  0  0  0  0
    0.7326   -0.9869   -0.0879 H   0  0  0  0  0  0  0  0  0  0  0  0
    0.7461    0.5484   -0.9740 H   0  0  0  0  0  0  0  0  0  0  0  0
    0.7473    0.5440    0.8061 H   0  0  0  0  0  0  0  0  0  0  0  0
    2.8932   -2.0931   -0.0771 H   0  0  0  0  0  0  0  0  0  0  0  0
    6.3339    2.5601   -0.0881 H   0  0  0  0  0  0  0  0  0  0  0  0
    4.9356    3.1767    0.8010 H   0  0  0  0  0  0  0  0  0  0  0  0
    4.9360    3.1741   -0.9793 H   0  0  0  0  0  0  0  0  0  0  0  0
    8.4248   -0.9167   -0.0646 H   0  0  0  0  0  0  0  0  0  0  0  0
    7.1120   -1.6743   -0.9736 H   0  0  0  0  0  0  0  0  0  0  0  0
    7.1032   -1.6710    0.8342 H   0  0  0  0  0  0  0  0  0  0  0  0
  1  2  1  0  0  0  0
  1 11  1  0  0  0  0
  1 12  1  0  0  0  0
  1 13  1  0  0  0  0
  2  3  2  0  0  0  0
  2  7  1  0  0  0  0
  3  4  1  0  0  0  0
  3 14  1  0  0  0  0
  4  5  2  0  0  0  0
  5  6  1  0  0  0  0
  5  9  1  0  0  0  0
  6  7  2  0  0  0  0
  6  8  1  0  0  0  0
  8 15  1  0  0  0  0
  8 16  1  0  0  0  0
  8 17  1  0  0  0  0
  9 10  1  0  0  0  0
 10 18  1  0  0  0  0
 10 19  1  0  0  0  0
 10 20  1  0  0  0  0
M  END
$$$$
