
 OpenBabel10182419193D

 28 27  0  0  0  0  0  0  0  0999 V2000
    1.0352    0.0507    0.0660 C   0  0  0  0  0  0  0  0  0  0  0  0
    2.5515    0.0577    0.0641 C   0  0  0  0  0  0  0  0  0  0  0  0
    3.0742    1.2788   -0.6804 C   0  0  0  0  0  0  0  0  0  0  0  0
    4.5949    1.2904   -0.6874 C   0  0  0  0  0  0  0  0  0  0  0  0
    5.1116    2.5146   -1.4314 C   0  0  0  0  0  0  0  0  0  0  0  0
    6.6321    2.5210   -1.4353 C   0  0  0  0  0  0  0  0  0  0  0  0
    7.1805    3.7359   -2.1737 C   0  0  0  0  0  0  0  0  0  0  0  0
    8.6926    3.7303   -2.1703 C   0  0  0  0  0  0  0  0  0  0  0  0
    9.3525    2.8384   -1.6283 O   0  0  0  0  0  0  0  0  0  0  0  0
    9.3957    4.8615   -2.8578 C   0  0  0  0  0  0  0  0  0  0  0  0
    0.6594   -0.8257    0.6003 H   0  0  0  0  0  0  0  0  0  0  0  0
    0.6484    0.0240   -0.9574 H   0  0  0  0  0  0  0  0  0  0  0  0
    0.6460    0.9482    0.5567 H   0  0  0  0  0  0  0  0  0  0  0  0
    2.9240   -0.8574   -0.4114 H   0  0  0  0  0  0  0  0  0  0  0  0
    2.9217    0.0628    1.0962 H   0  0  0  0  0  0  0  0  0  0  0  0
    2.7004    2.1938   -0.2044 H   0  0  0  0  0  0  0  0  0  0  0  0
    2.7006    1.2748   -1.7118 H   0  0  0  0  0  0  0  0  0  0  0  0
    4.9714    0.3779   -1.1660 H   0  0  0  0  0  0  0  0  0  0  0  0
    4.9714    1.2949    0.3430 H   0  0  0  0  0  0  0  0  0  0  0  0
    4.7355    3.4266   -0.9520 H   0  0  0  0  0  0  0  0  0  0  0  0
    4.7355    2.5090   -2.4618 H   0  0  0  0  0  0  0  0  0  0  0  0
    7.0019    1.6006   -1.9063 H   0  0  0  0  0  0  0  0  0  0  0  0
    7.0019    2.5153   -0.4015 H   0  0  0  0  0  0  0  0  0  0  0  0
    6.8310    4.6545   -1.6906 H   0  0  0  0  0  0  0  0  0  0  0  0
    6.8310    3.7302   -3.2116 H   0  0  0  0  0  0  0  0  0  0  0  0
    8.6769    5.5661   -3.2861 H   0  0  0  0  0  0  0  0  0  0  0  0
   10.0178    4.4577   -3.6614 H   0  0  0  0  0  0  0  0  0  0  0  0
   10.0179    5.3888   -2.1294 H   0  0  0  0  0  0  0  0  0  0  0  0
  1  2  1  0  0  0  0
  1 11  1  0  0  0  0
  1 12  1  0  0  0  0
  1 13  1  0  0  0  0
  2  3  1  0  0  0  0
  2 14  1  0  0  0  0
  2 15  1  0  0  0  0
  3  4  1  0  0  0  0
  3 16  1  0  0  0  0
  3 17  1  0  0  0  0
  4  5  1  0  0  0  0
  4 18  1  0  0  0  0
  4 19  1  0  0  0  0
  5  6  1  0  0  0  0
  5 20  1  0  0  0  0
  5 21  1  0  0  0  0
  6  7  1  0  0  0  0
  6 22  1  0  0  0  0
  6 23  1  0  0  0  0
  7  8  1  0  0  0  0
  7 24  1  0  0  0  0
  7 25  1  0  0  0  0
  8  9  2  0  0  0  0
  8 10  1  0  0  0  0
 10 26  1  0  0  0  0
 10 27  1  0  0  0  0
 10 28  1  0  0  0  0
M  END
$$$$
