
 OpenBabel12012402023D

 25 24  0  0  0  0  0  0  0  0999 V2000
    0.8900   -0.0100    0.0714 C   0  0  0  0  0  0  0  0  0  0  0  0
    2.4091   -0.0148    0.0650 C   0  0  0  0  0  0  0  0  0  0  0  0
    2.9462   -0.5677   -1.2509 C   0  0  0  0  0  0  0  0  0  0  0  0
    4.4733   -0.5750   -1.2684 C   0  0  0  0  0  0  0  0  0  0  0  0
    4.9843   -1.1296   -2.5937 C   0  0  0  0  0  0  0  0  0  0  0  0
    6.5070   -1.1506   -2.6490 C   0  0  0  0  0  0  0  0  0  0  0  0
    7.0036   -1.7032   -3.9694 C   0  0  0  0  0  0  0  0  0  0  0  0
    6.2471   -2.0782   -4.8659 O   0  0  0  0  0  0  0  0  0  0  0  0
    8.4946   -1.7824   -4.1587 C   0  0  0  0  0  0  0  0  0  0  0  0
    0.5154    0.3880    1.0187 H   0  0  0  0  0  0  0  0  0  0  0  0
    0.4963   -1.0239   -0.0537 H   0  0  0  0  0  0  0  0  0  0  0  0
    0.4986    0.6120   -0.7401 H   0  0  0  0  0  0  0  0  0  0  0  0
    2.7743   -0.6219    0.9014 H   0  0  0  0  0  0  0  0  0  0  0  0
    2.7766    1.0064    0.2183 H   0  0  0  0  0  0  0  0  0  0  0  0
    2.5722    0.0385   -2.0854 H   0  0  0  0  0  0  0  0  0  0  0  0
    2.5722   -1.5880   -1.4021 H   0  0  0  0  0  0  0  0  0  0  0  0
    4.8509   -1.1855   -0.4392 H   0  0  0  0  0  0  0  0  0  0  0  0
    4.8509    0.4441   -1.1212 H   0  0  0  0  0  0  0  0  0  0  0  0
    4.5953   -0.5222   -3.4204 H   0  0  0  0  0  0  0  0  0  0  0  0
    4.5976   -2.1458   -2.7400 H   0  0  0  0  0  0  0  0  0  0  0  0
    6.9048   -1.7778   -1.8428 H   0  0  0  0  0  0  0  0  0  0  0  0
    6.9025   -0.1351   -2.5312 H   0  0  0  0  0  0  0  0  0  0  0  0
    9.0160   -1.4115   -3.2725 H   0  0  0  0  0  0  0  0  0  0  0  0
    8.7792   -1.1688   -5.0168 H   0  0  0  0  0  0  0  0  0  0  0  0
    8.7792   -2.8242   -4.3240 H   0  0  0  0  0  0  0  0  0  0  0  0
  1  2  1  0  0  0  0
  1 10  1  0  0  0  0
  1 11  1  0  0  0  0
  1 12  1  0  0  0  0
  2  3  1  0  0  0  0
  2 13  1  0  0  0  0
  2 14  1  0  0  0  0
  3  4  1  0  0  0  0
  3 15  1  0  0  0  0
  3 16  1  0  0  0  0
  4  5  1  0  0  0  0
  4 17  1  0  0  0  0
  4 18  1  0  0  0  0
  5  6  1  0  0  0  0
  5 19  1  0  0  0  0
  5 20  1  0  0  0  0
  6  7  1  0  0  0  0
  6 21  1  0  0  0  0
  6 22  1  0  0  0  0
  7  8  2  0  0  0  0
  7  9  1  0  0  0  0
  9 23  1  0  0  0  0
  9 24  1  0  0  0  0
  9 25  1  0  0  0  0
M  END
$$$$
