
 OpenBabel02072513523D

 27 26  0  0  1  0  0  0  0  0999 V2000
    0.9622   -0.0619   -0.1030 C   0  0  0  0  0  0  0  0  0  0  0  0
    2.4811   -0.0483   -0.1003 C   0  0  0  0  0  0  0  0  0  0  0  0
    3.0198    1.2071   -0.7818 C   0  0  0  0  0  0  0  0  0  0  0  0
    4.5462    1.2289   -0.7854 C   0  0  0  0  0  0  0  0  0  0  0  0
    5.0709    2.4914   -1.4679 C   0  0  0  0  0  0  0  0  0  0  0  0
    6.6003    2.5199   -1.4742 C   0  0  0  0  0  0  0  0  0  0  0  0
    7.1479    3.7770   -2.1548 C   0  0  1  0  0  0  0  0  0  0  0  0
    6.6951    4.9440   -1.4735 O   0  0  0  0  0  0  0  0  0  0  0  0
    8.6696    3.7789   -2.1647 C   0  0  0  0  0  0  0  0  0  0  0  0
    0.5889   -0.9664    0.3869 H   0  0  0  0  0  0  0  0  0  0  0  0
    0.5728   -0.0430   -1.1262 H   0  0  0  0  0  0  0  0  0  0  0  0
    0.5622    0.8056    0.4324 H   0  0  0  0  0  0  0  0  0  0  0  0
    2.8528   -0.9418   -0.6154 H   0  0  0  0  0  0  0  0  0  0  0  0
    2.8422   -0.0958    0.9340 H   0  0  0  0  0  0  0  0  0  0  0  0
    2.6407    2.0971   -0.2645 H   0  0  0  0  0  0  0  0  0  0  0  0
    2.6490    1.2519   -1.8139 H   0  0  0  0  0  0  0  0  0  0  0  0
    4.9285    0.3416   -1.3048 H   0  0  0  0  0  0  0  0  0  0  0  0
    4.9182    1.1856    0.2461 H   0  0  0  0  0  0  0  0  0  0  0  0
    4.6815    3.3736   -0.9455 H   0  0  0  0  0  0  0  0  0  0  0  0
    4.6988    2.5355   -2.4989 H   0  0  0  0  0  0  0  0  0  0  0  0
    6.9813    1.6285   -1.9877 H   0  0  0  0  0  0  0  0  0  0  0  0
    6.9550    2.4781   -0.4367 H   0  0  0  0  0  0  0  0  0  0  0  0
    6.7794    3.8348   -3.1847 H   0  0  0  0  0  0  0  0  0  0  0  0
    6.9685    4.8721   -0.5432 H   0  0  0  0  0  0  0  0  0  0  0  0
    9.0682    3.7653   -1.1444 H   0  0  0  0  0  0  0  0  0  0  0  0
    9.0472    4.6911   -2.6382 H   0  0  0  0  0  0  0  0  0  0  0  0
    9.0642    2.9137   -2.7064 H   0  0  0  0  0  0  0  0  0  0  0  0
  1  2  1  0  0  0  0
  1 10  1  0  0  0  0
  1 11  1  0  0  0  0
  1 12  1  0  0  0  0
  2  3  1  0  0  0  0
  2 13  1  0  0  0  0
  2 14  1  0  0  0  0
  3  4  1  0  0  0  0
  3 15  1  0  0  0  0
  3 16  1  0  0  0  0
  4  5  1  0  0  0  0
  4 17  1  0  0  0  0
  4 18  1  0  0  0  0
  5  6  1  0  0  0  0
  5 19  1  0  0  0  0
  5 20  1  0  0  0  0
  6  7  1  0  0  0  0
  6 21  1  0  0  0  0
  6 22  1  0  0  0  0
  7  8  1  0  0  0  0
  7  9  1  0  0  0  0
  7 23  1  6  0  0  0
  8 24  1  0  0  0  0
  9 25  1  0  0  0  0
  9 26  1  0  0  0  0
  9 27  1  0  0  0  0
M  END
$$$$
