
 OpenBabel12012403063D

 19 19  0  0  0  0  0  0  0  0999 V2000
    0.8178    1.3153   -0.2784 S   0  0  0  0  0  0  0  0  0  0  0  0
    2.6370    1.2987   -0.2177 C   0  0  0  0  0  0  0  0  0  0  0  0
    3.1995    0.4287   -1.3411 C   0  0  0  0  0  0  0  0  0  0  0  0
    4.7118    0.3870   -1.3659 C   0  0  0  0  0  0  0  0  0  0  0  0
    5.4389   -0.1150   -0.2774 C   0  0  0  0  0  0  0  0  0  0  0  0
    6.8328   -0.1942   -0.3301 C   0  0  0  0  0  0  0  0  0  0  0  0
    7.5132    0.2190   -1.4728 C   0  0  0  0  0  0  0  0  0  0  0  0
    6.8028    0.7179   -2.5618 C   0  0  0  0  0  0  0  0  0  0  0  0
    5.4098    0.8020   -2.5090 C   0  0  0  0  0  0  0  0  0  0  0  0
    0.6349    2.0923    0.7988 H   0  0  0  0  0  0  0  0  0  0  0  0
    2.9358    0.9228    0.7657 H   0  0  0  0  0  0  0  0  0  0  0  0
    2.9978    2.3293   -0.3038 H   0  0  0  0  0  0  0  0  0  0  0  0
    2.8337    0.8003   -2.3073 H   0  0  0  0  0  0  0  0  0  0  0  0
    2.8378   -0.6049   -1.2482 H   0  0  0  0  0  0  0  0  0  0  0  0
    4.9274   -0.4633    0.6165 H   0  0  0  0  0  0  0  0  0  0  0  0
    7.3861   -0.5893    0.5179 H   0  0  0  0  0  0  0  0  0  0  0  0
    8.5967    0.1445   -1.5184 H   0  0  0  0  0  0  0  0  0  0  0  0
    7.3313    1.0334   -3.4573 H   0  0  0  0  0  0  0  0  0  0  0  0
    4.8731    1.1854   -3.3744 H   0  0  0  0  0  0  0  0  0  0  0  0
  1  2  1  0  0  0  0
  1 10  1  0  0  0  0
  2  3  1  0  0  0  0
  2 11  1  0  0  0  0
  2 12  1  0  0  0  0
  3  4  1  0  0  0  0
  3 13  1  0  0  0  0
  3 14  1  0  0  0  0
  4  5  1  0  0  0  0
  4  9  2  0  0  0  0
  5  6  2  0  0  0  0
  5 15  1  0  0  0  0
  6  7  1  0  0  0  0
  6 16  1  0  0  0  0
  7  8  2  0  0  0  0
  7 17  1  0  0  0  0
  8  9  1  0  0  0  0
  8 18  1  0  0  0  0
  9 19  1  0  0  0  0
M  END
$$$$
