
 OpenBabel09122405023D

 34 33  0  0  0  0  0  0  0  0999 V2000
    0.9460   -0.0265   -0.1032 C   0  0  0  0  0  0  0  0  0  0  0  0
    2.4663   -0.0363   -0.0964 C   0  0  0  0  0  0  0  0  0  0  0  0
    2.9945   -0.8781    1.0581 C   0  0  0  0  0  0  0  0  0  0  0  0
    4.5180   -0.8895    1.0703 C   0  0  0  0  0  0  0  0  0  0  0  0
    5.0355   -1.7325    2.2299 C   0  0  0  0  0  0  0  0  0  0  0  0
    6.5584   -1.7435    2.2455 C   0  0  0  0  0  0  0  0  0  0  0  0
    7.0806   -2.5885    3.4072 C   0  0  0  0  0  0  0  0  0  0  0  0
    8.6037   -2.5904    3.4099 C   0  0  0  0  0  0  0  0  0  0  0  0
    9.1627   -3.4234    4.5557 C   0  0  0  0  0  0  0  0  0  0  0  0
   10.6796   -3.4195    4.5504 C   0  0  0  0  0  0  0  0  0  0  0  0
   11.3427   -2.8099    3.7120 O   0  0  0  0  0  0  0  0  0  0  0  0
   11.3649   -4.2061    5.6325 C   0  0  0  0  0  0  0  0  0  0  0  0
    0.5727    0.5792   -0.9339 H   0  0  0  0  0  0  0  0  0  0  0  0
    0.5550    0.3933    0.8295 H   0  0  0  0  0  0  0  0  0  0  0  0
    0.5504   -1.0414   -0.2144 H   0  0  0  0  0  0  0  0  0  0  0  0
    2.8346    0.9922   -0.0108 H   0  0  0  0  0  0  0  0  0  0  0  0
    2.8302   -0.4357   -1.0498 H   0  0  0  0  0  0  0  0  0  0  0  0
    2.6194   -1.9052    0.9703 H   0  0  0  0  0  0  0  0  0  0  0  0
    2.6218   -0.4785    2.0093 H   0  0  0  0  0  0  0  0  0  0  0  0
    4.8969    0.1360    1.1598 H   0  0  0  0  0  0  0  0  0  0  0  0
    4.8946   -1.2924    0.1222 H   0  0  0  0  0  0  0  0  0  0  0  0
    4.6583   -2.7585    2.1399 H   0  0  0  0  0  0  0  0  0  0  0  0
    4.6585   -1.3304    3.1781 H   0  0  0  0  0  0  0  0  0  0  0  0
    6.9348   -0.7181    2.3354 H   0  0  0  0  0  0  0  0  0  0  0  0
    6.9348   -2.1458    1.2974 H   0  0  0  0  0  0  0  0  0  0  0  0
    6.7057   -3.6147    3.3163 H   0  0  0  0  0  0  0  0  0  0  0  0
    6.7057   -2.1853    4.3554 H   0  0  0  0  0  0  0  0  0  0  0  0
    8.9721   -1.5589    3.4881 H   0  0  0  0  0  0  0  0  0  0  0  0
    8.9721   -2.9830    2.4529 H   0  0  0  0  0  0  0  0  0  0  0  0
    8.8214   -4.4608    4.4679 H   0  0  0  0  0  0  0  0  0  0  0  0
    8.8213   -3.0198    5.5155 H   0  0  0  0  0  0  0  0  0  0  0  0
   10.6289   -4.6810    6.2858 H   0  0  0  0  0  0  0  0  0  0  0  0
   11.9819   -3.5293    6.2283 H   0  0  0  0  0  0  0  0  0  0  0  0
   11.9819   -4.9816    5.1725 H   0  0  0  0  0  0  0  0  0  0  0  0
  1  2  1  0  0  0  0
  1 13  1  0  0  0  0
  1 14  1  0  0  0  0
  1 15  1  0  0  0  0
  2  3  1  0  0  0  0
  2 16  1  0  0  0  0
  2 17  1  0  0  0  0
  3  4  1  0  0  0  0
  3 18  1  0  0  0  0
  3 19  1  0  0  0  0
  4  5  1  0  0  0  0
  4 20  1  0  0  0  0
  4 21  1  0  0  0  0
  5  6  1  0  0  0  0
  5 22  1  0  0  0  0
  5 23  1  0  0  0  0
  6  7  1  0  0  0  0
  6 24  1  0  0  0  0
  6 25  1  0  0  0  0
  7  8  1  0  0  0  0
  7 26  1  0  0  0  0
  7 27  1  0  0  0  0
  8  9  1  0  0  0  0
  8 28  1  0  0  0  0
  8 29  1  0  0  0  0
  9 10  1  0  0  0  0
  9 30  1  0  0  0  0
  9 31  1  0  0  0  0
 10 11  2  0  0  0  0
 10 12  1  0  0  0  0
 12 32  1  0  0  0  0
 12 33  1  0  0  0  0
 12 34  1  0  0  0  0
M  END
$$$$
