
 OpenBabel01032513343D

 18 17  0  0  0  0  0  0  0  0999 V2000
    0.9212   -0.0146   -0.0535 C   0  0  0  0  0  0  0  0  0  0  0  0
    2.4379   -0.0712   -0.0081 C   0  0  0  0  0  0  0  0  0  0  0  0
    2.9310   -1.1667    0.9086 C   0  0  0  0  0  0  0  0  0  0  0  0
    2.2288   -1.9051    1.5837 O   0  0  0  0  0  0  0  0  0  0  0  0
    4.4363   -1.2995    1.0157 C   0  0  0  0  0  0  0  0  0  0  0  0
    5.0805   -1.4860   -0.0098 O   0  0  0  0  0  0  0  0  0  0  0  0
    5.0132   -1.1301    2.3992 C   0  0  0  0  0  0  0  0  0  0  0  0
    6.5255   -1.2815    2.4063 C   0  0  0  0  0  0  0  0  0  0  0  0
    0.5861    0.7872   -0.7198 H   0  0  0  0  0  0  0  0  0  0  0  0
    0.5039    0.1722    0.9421 H   0  0  0  0  0  0  0  0  0  0  0  0
    0.5042   -0.9596   -0.4183 H   0  0  0  0  0  0  0  0  0  0  0  0
    2.8287    0.8848    0.3559 H   0  0  0  0  0  0  0  0  0  0  0  0
    2.8263   -0.2512   -1.0155 H   0  0  0  0  0  0  0  0  0  0  0  0
    4.5692   -1.8801    3.0626 H   0  0  0  0  0  0  0  0  0  0  0  0
    4.7460   -0.1333    2.7645 H   0  0  0  0  0  0  0  0  0  0  0  0
    6.8217   -2.2733    2.0484 H   0  0  0  0  0  0  0  0  0  0  0  0
    6.9198   -1.1509    3.4185 H   0  0  0  0  0  0  0  0  0  0  0  0
    6.9984   -0.5372    1.7567 H   0  0  0  0  0  0  0  0  0  0  0  0
  1  2  1  0  0  0  0
  1  9  1  0  0  0  0
  1 10  1  0  0  0  0
  1 11  1  0  0  0  0
  2  3  1  0  0  0  0
  2 12  1  0  0  0  0
  2 13  1  0  0  0  0
  3  4  2  0  0  0  0
  3  5  1  0  0  0  0
  5  6  2  0  0  0  0
  5  7  1  0  0  0  0
  7  8  1  0  0  0  0
  7 14  1  0  0  0  0
  7 15  1  0  0  0  0
  8 16  1  0  0  0  0
  8 17  1  0  0  0  0
  8 18  1  0  0  0  0
M  END
$$$$
