
 OpenBabel11302423583D

 22 21  0  0  0  0  0  0  0  0999 V2000
    1.0405    0.0415   -0.1066 C   0  0  0  0  0  0  0  0  0  0  0  0
    2.5614    0.0405   -0.0962 C   0  0  0  0  0  0  0  0  0  0  0  0
    3.0833    0.1467    1.3320 C   0  0  0  0  0  0  0  0  0  0  0  0
    4.6084    0.1518    1.4013 C   0  0  0  0  0  0  0  0  0  0  0  0
    5.0760    0.2589    2.8397 C   0  0  0  0  0  0  0  0  0  0  0  0
    4.2813    0.3284    3.7745 O   0  0  0  0  0  0  0  0  0  0  0  0
    6.5746    0.2762    3.0728 C   0  0  0  0  0  0  0  0  0  0  0  0
    6.8982    0.3864    4.5537 C   0  0  0  0  0  0  0  0  0  0  0  0
    0.6642   -0.0346   -1.1305 H   0  0  0  0  0  0  0  0  0  0  0  0
    0.6473    0.9637    0.3342 H   0  0  0  0  0  0  0  0  0  0  0  0
    0.6451   -0.8040    0.4665 H   0  0  0  0  0  0  0  0  0  0  0  0
    2.9303    0.8814   -0.6945 H   0  0  0  0  0  0  0  0  0  0  0  0
    2.9282   -0.8810   -0.5623 H   0  0  0  0  0  0  0  0  0  0  0  0
    2.6955   -0.6919    1.9252 H   0  0  0  0  0  0  0  0  0  0  0  0
    2.6956    1.0639    1.7944 H   0  0  0  0  0  0  0  0  0  0  0  0
    5.0128    1.0032    0.8449 H   0  0  0  0  0  0  0  0  0  0  0  0
    5.0128   -0.7724    0.9769 H   0  0  0  0  0  0  0  0  0  0  0  0
    6.9988    1.1298    2.5357 H   0  0  0  0  0  0  0  0  0  0  0  0
    6.9989   -0.6475    2.6679 H   0  0  0  0  0  0  0  0  0  0  0  0
    6.4770    1.3042    4.9779 H   0  0  0  0  0  0  0  0  0  0  0  0
    7.9802    0.3985    4.7162 H   0  0  0  0  0  0  0  0  0  0  0  0
    6.4770   -0.4585    5.1090 H   0  0  0  0  0  0  0  0  0  0  0  0
  1  2  1  0  0  0  0
  1  9  1  0  0  0  0
  1 10  1  0  0  0  0
  1 11  1  0  0  0  0
  2  3  1  0  0  0  0
  2 12  1  0  0  0  0
  2 13  1  0  0  0  0
  3  4  1  0  0  0  0
  3 14  1  0  0  0  0
  3 15  1  0  0  0  0
  4  5  1  0  0  0  0
  4 16  1  0  0  0  0
  4 17  1  0  0  0  0
  5  6  2  0  0  0  0
  5  7  1  0  0  0  0
  7  8  1  0  0  0  0
  7 18  1  0  0  0  0
  7 19  1  0  0  0  0
  8 20  1  0  0  0  0
  8 21  1  0  0  0  0
  8 22  1  0  0  0  0
M  END
$$$$
