
 OpenBabel10142511233D

 26 25  0  0  1  0  0  0  0  0999 V2000
    0.9781   -0.2372    0.0217 C   0  0  0  0  0  0  0  0  0  0  0  0
    2.5002   -0.2486    0.0604 C   0  0  0  0  0  0  0  0  0  0  0  0
    3.0274    0.9789    0.8018 C   0  0  0  0  0  0  0  0  0  0  0  0
    4.5611    1.0011    0.8926 C   0  0  0  0  0  0  0  0  0  0  0  0
    5.1215    2.2642    1.5926 C   0  0  3  0  0  0  0  0  0  0  0  0
    6.6544    2.2408    1.6962 C   0  0  0  0  0  0  0  0  0  0  0  0
    7.4120    2.2349    0.3712 C   0  0  0  0  0  0  0  0  0  0  0  0
    6.8158    2.8031   -0.5916 O   0  0  0  0  0  0  0  0  0  0  0  0
    8.5488    1.6899    0.4077 O   0  5  0  0  0  0  0  0  0  0  0  0
    4.7028    3.4246    0.8631 O   0  0  0  0  0  0  0  0  0  0  0  0
    4.5501    2.4160    3.0108 C   0  0  0  0  0  0  0  0  0  0  0  0
    0.6011   -1.1192   -0.5040 H   0  0  0  0  0  0  0  0  0  0  0  0
    0.6066    0.6536   -0.4955 H   0  0  0  0  0  0  0  0  0  0  0  0
    0.5609   -0.2408    1.0344 H   0  0  0  0  0  0  0  0  0  0  0  0
    2.8899   -0.2681   -0.9635 H   0  0  0  0  0  0  0  0  0  0  0  0
    2.8411   -1.1627    0.5598 H   0  0  0  0  0  0  0  0  0  0  0  0
    2.5954    0.9764    1.8081 H   0  0  0  0  0  0  0  0  0  0  0  0
    2.6730    1.8848    0.2963 H   0  0  0  0  0  0  0  0  0  0  0  0
    4.9524    0.9462   -0.1318 H   0  0  0  0  0  0  0  0  0  0  0  0
    4.9075    0.1023    1.4166 H   0  0  0  0  0  0  0  0  0  0  0  0
    6.9732    1.3750    2.2903 H   0  0  0  0  0  0  0  0  0  0  0  0
    6.9994    3.1419    2.2212 H   0  0  0  0  0  0  0  0  0  0  0  0
    5.2940    3.4294    0.0647 H   0  0  0  0  0  0  0  0  0  0  0  0
    4.7960    1.5527    3.6376 H   0  0  0  0  0  0  0  0  0  0  0  0
    3.4633    2.5468    3.0020 H   0  0  0  0  0  0  0  0  0  0  0  0
    4.9442    3.3184    3.4922 H   0  0  0  0  0  0  0  0  0  0  0  0
  1  2  1  0  0  0  0
  1 12  1  0  0  0  0
  1 13  1  0  0  0  0
  1 14  1  0  0  0  0
  2  3  1  0  0  0  0
  2 15  1  0  0  0  0
  2 16  1  0  0  0  0
  3  4  1  0  0  0  0
  3 17  1  0  0  0  0
  3 18  1  0  0  0  0
  4  5  1  0  0  0  0
  4 19  1  0  0  0  0
  4 20  1  0  0  0  0
  5  6  1  0  0  0  0
  5 10  1  0  0  0  0
  5 11  1  0  0  0  0
  6  7  1  0  0  0  0
  6 21  1  0  0  0  0
  6 22  1  0  0  0  0
  7  8  2  0  0  0  0
  7  9  1  0  0  0  0
 10 23  1  0  0  0  0
 11 24  1  0  0  0  0
 11 25  1  0  0  0  0
 11 26  1  0  0  0  0
M  CHG  1   9  -1
M  END
$$$$
