
 OpenBabel10142511223D

 26 25  0  0  1  0  0  0  0  0999 V2000
    0.7159    0.0855    0.1135 C   0  0  0  0  0  0  0  0  0  0  0  0
    2.2346    0.1192    0.0452 C   0  0  0  0  0  0  0  0  0  0  0  0
    2.8734   -0.4520    1.3133 C   0  0  0  0  0  0  0  0  0  0  0  0
    4.4251   -0.5331    1.3079 C   0  0  3  0  0  0  0  0  0  0  0  0
    5.1146    0.8534    1.1781 C   0  0  3  0  0  0  0  0  0  0  0  0
    6.6386    0.8571    1.2854 C   0  0  0  0  0  0  0  0  0  0  0  0
    7.3404    0.0494    0.1940 C   0  0  0  0  0  0  0  0  0  0  0  0
    6.7184   -0.0300   -0.9072 O   0  0  0  0  0  0  0  0  0  0  0  0
    8.4682   -0.4141    0.5150 O   0  5  0  0  0  0  0  0  0  0  0  0
    4.7664    1.4797   -0.0588 O   0  0  0  0  0  0  0  0  0  0  0  0
    4.8601   -1.2586    2.5920 C   0  0  0  0  0  0  0  0  0  0  0  0
    0.2920    0.5128   -0.8011 H   0  0  0  0  0  0  0  0  0  0  0  0
    0.3548    0.6788    0.9600 H   0  0  0  0  0  0  0  0  0  0  0  0
    0.3444   -0.9367    0.2200 H   0  0  0  0  0  0  0  0  0  0  0  0
    2.5159    1.1650   -0.0939 H   0  0  0  0  0  0  0  0  0  0  0  0
    2.5762   -0.4424   -0.8320 H   0  0  0  0  0  0  0  0  0  0  0  0
    2.4781   -1.4670    1.4593 H   0  0  0  0  0  0  0  0  0  0  0  0
    2.5436    0.1345    2.1802 H   0  0  0  0  0  0  0  0  0  0  0  0
    4.7080   -1.1584    0.4522 H   0  0  0  0  0  0  0  0  0  0  0  0
    4.7213    1.5035    1.9693 H   0  0  0  0  0  0  0  0  0  0  0  0
    6.9598    0.5018    2.2751 H   0  0  0  0  0  0  0  0  0  0  0  0
    7.0037    1.8878    1.1852 H   0  0  0  0  0  0  0  0  0  0  0  0
    5.2950    0.9771   -0.7331 H   0  0  0  0  0  0  0  0  0  0  0  0
    4.6319   -0.6583    3.4802 H   0  0  0  0  0  0  0  0  0  0  0  0
    5.9316   -1.4770    2.5920 H   0  0  0  0  0  0  0  0  0  0  0  0
    4.3413   -2.2182    2.6957 H   0  0  0  0  0  0  0  0  0  0  0  0
  1  2  1  0  0  0  0
  1 12  1  0  0  0  0
  1 13  1  0  0  0  0
  1 14  1  0  0  0  0
  2  3  1  0  0  0  0
  2 15  1  0  0  0  0
  2 16  1  0  0  0  0
  3  4  1  0  0  0  0
  3 17  1  0  0  0  0
  3 18  1  0  0  0  0
  4  5  1  0  0  0  0
  4 11  1  0  0  0  0
  4 19  1  0  0  0  0
  5  6  1  0  0  0  0
  5 10  1  0  0  0  0
  5 20  1  0  0  0  0
  6  7  1  0  0  0  0
  6 21  1  0  0  0  0
  6 22  1  0  0  0  0
  7  8  2  0  0  0  0
  7  9  1  0  0  0  0
 10 23  1  0  0  0  0
 11 24  1  0  0  0  0
 11 25  1  0  0  0  0
 11 26  1  0  0  0  0
M  CHG  1   9  -1
M  END
$$$$
