
 OpenBabel07232519573D

 23 25  0  0  0  0  0  0  0  0999 V2000
    1.1325    0.1462    0.0039 O   0  0  0  0  0  0  0  0  0  0  0  0
    2.4913    0.0854    0.0044 C   0  0  0  0  0  0  0  0  0  0  0  0
    3.1720   -1.1183    0.0044 C   0  0  0  0  0  0  0  0  0  0  0  0
    4.5758   -1.1217    0.0043 C   0  0  0  0  0  0  0  0  0  0  0  0
    5.2618   -2.3385    0.0041 C   0  0  0  0  0  0  0  0  0  0  0  0
    6.6480   -2.3543    0.0039 C   0  0  0  0  0  0  0  0  0  0  0  0
    7.3613   -1.1534    0.0042 C   0  0  0  0  0  0  0  0  0  0  0  0
    8.7631   -1.1779    0.0027 C   0  0  0  0  0  0  0  0  0  0  0  0
    9.4793    0.0088    0.0032 C   0  0  0  0  0  0  0  0  0  0  0  0
    8.7640    1.1854    0.0054 C   0  0  0  0  0  0  0  0  0  0  0  0
    7.4151    1.2440    0.0064 N   0  0  0  0  0  0  0  0  0  0  0  0
    6.6898    0.0945    0.0054 C   0  0  0  0  0  0  0  0  0  0  0  0
    5.2787    0.1113    0.0054 C   0  0  0  0  0  0  0  0  0  0  0  0
    4.5824    1.2787    0.0056 N   0  0  0  0  0  0  0  0  0  0  0  0
    3.2292    1.2491    0.0049 C   0  0  0  0  0  0  0  0  0  0  0  0
    0.7734   -0.7568    0.0041 H   0  0  0  0  0  0  0  0  0  0  0  0
    2.6248   -2.0561    0.0039 H   0  0  0  0  0  0  0  0  0  0  0  0
    4.7244   -3.2841    0.0039 H   0  0  0  0  0  0  0  0  0  0  0  0
    7.1666   -3.3105    0.0034 H   0  0  0  0  0  0  0  0  0  0  0  0
    9.3038   -2.1214    0.0010 H   0  0  0  0  0  0  0  0  0  0  0  0
   10.5632    0.0129    0.0018 H   0  0  0  0  0  0  0  0  0  0  0  0
    9.2673    2.1485    0.0063 H   0  0  0  0  0  0  0  0  0  0  0  0
    2.7435    2.2200    0.0050 H   0  0  0  0  0  0  0  0  0  0  0  0
  1  2  1  0  0  0  0
  1 16  1  0  0  0  0
  2  3  1  0  0  0  0
  2 15  2  0  0  0  0
  3  4  2  0  0  0  0
  3 17  1  0  0  0  0
  4  5  1  0  0  0  0
  4 13  1  0  0  0  0
  5  6  2  0  0  0  0
  5 18  1  0  0  0  0
  6  7  1  0  0  0  0
  6 19  1  0  0  0  0
  7  8  1  0  0  0  0
  7 12  2  0  0  0  0
  8  9  2  0  0  0  0
  8 20  1  0  0  0  0
  9 10  1  0  0  0  0
  9 21  1  0  0  0  0
 10 11  2  0  0  0  0
 10 22  1  0  0  0  0
 11 12  1  0  0  0  0
 12 13  1  0  0  0  0
 13 14  2  0  0  0  0
 14 15  1  0  0  0  0
 15 23  1  0  0  0  0
M  END
$$$$
