
 OpenBabel10142511213D

 17 16  0  0  0  0  0  0  0  0999 V2000
    2.5360    1.9488   -2.7667 O   0  5  0  0  0  0  0  0  0  0  0  0
    2.5784    0.8472   -2.1543 C   0  0  0  0  0  0  0  0  0  0  0  0
    2.1864   -0.2962   -2.5199 O   0  0  0  0  0  0  0  0  0  0  0  0
    3.1571    0.9037   -0.7448 C   0  0  0  0  0  0  0  0  0  0  0  0
    4.6703    0.6905   -0.7066 C   0  0  0  0  0  0  0  0  0  0  0  0
    5.0816    0.7473    0.6781 O   0  0  0  0  0  0  0  0  0  0  0  0
    5.0969   -0.6834   -1.2308 C   0  0  0  0  0  0  0  0  0  0  0  0
    5.4381    1.7964   -1.4308 C   0  0  0  0  0  0  0  0  0  0  0  0
    2.6520    0.1511   -0.1243 H   0  0  0  0  0  0  0  0  0  0  0  0
    2.9003    1.8674   -0.2849 H   0  0  0  0  0  0  0  0  0  0  0  0
    4.4777    0.1582    1.1610 H   0  0  0  0  0  0  0  0  0  0  0  0
    4.6167   -1.4861   -0.6597 H   0  0  0  0  0  0  0  0  0  0  0  0
    6.1773   -0.8249   -1.1077 H   0  0  0  0  0  0  0  0  0  0  0  0
    4.8590   -0.8156   -2.2904 H   0  0  0  0  0  0  0  0  0  0  0  0
    5.1757    2.7809   -1.0270 H   0  0  0  0  0  0  0  0  0  0  0  0
    5.2438    1.7964   -2.5075 H   0  0  0  0  0  0  0  0  0  0  0  0
    6.5183    1.6816   -1.2820 H   0  0  0  0  0  0  0  0  0  0  0  0
  1  2  1  0  0  0  0
  2  3  2  0  0  0  0
  2  4  1  0  0  0  0
  4  5  1  0  0  0  0
  4  9  1  0  0  0  0
  4 10  1  0  0  0  0
  5  6  1  0  0  0  0
  5  7  1  0  0  0  0
  5  8  1  0  0  0  0
  6 11  1  0  0  0  0
  7 12  1  0  0  0  0
  7 13  1  0  0  0  0
  7 14  1  0  0  0  0
  8 15  1  0  0  0  0
  8 16  1  0  0  0  0
  8 17  1  0  0  0  0
M  CHG  1   1  -1
M  END
$$$$
