
 OpenBabel08282422233D

 25 24  0  0  1  0  0  0  0  0999 V2000
    3.7550    2.7596    2.1859 O   0  0  0  0  0  0  0  0  0  0  0  0
    3.0648    2.1425    1.1047 C   0  0  0  0  0  0  0  0  0  0  0  0
    2.9025    0.6379    1.3828 C   0  0  2  0  0  0  0  0  0  0  0  0
    2.3776   -0.1170    0.1291 C   0  0  1  0  0  0  0  0  0  0  0  0
    0.6620    0.3612   -0.3207 S   0  0  0  0  0  0  0  0  0  0  0  0
    2.5102   -1.6495    0.2766 C   0  0  0  0  0  0  0  0  0  0  0  0
    2.2082   -2.4345   -1.0078 C   0  0  0  0  0  0  0  0  0  0  0  0
    2.4248   -3.9284   -0.8135 C   0  0  0  0  0  0  0  0  0  0  0  0
    2.0731    0.4132    2.6566 C   0  0  0  0  0  0  0  0  0  0  0  0
    3.7909    3.7129    1.9935 H   0  0  0  0  0  0  0  0  0  0  0  0
    3.6553    2.3057    0.1975 H   0  0  0  0  0  0  0  0  0  0  0  0
    2.0964    2.6421    0.9898 H   0  0  0  0  0  0  0  0  0  0  0  0
    3.9069    0.2513    1.6046 H   0  0  0  0  0  0  0  0  0  0  0  0
    3.0009    0.1822   -0.7234 H   0  0  0  0  0  0  0  0  0  0  0  0
    0.0566   -0.2138    0.7301 H   0  0  0  0  0  0  0  0  0  0  0  0
    1.8576   -2.0154    1.0801 H   0  0  0  0  0  0  0  0  0  0  0  0
    3.5381   -1.8807    0.5828 H   0  0  0  0  0  0  0  0  0  0  0  0
    2.8504   -2.0801   -1.8220 H   0  0  0  0  0  0  0  0  0  0  0  0
    1.1702   -2.2803   -1.3203 H   0  0  0  0  0  0  0  0  0  0  0  0
    3.4762   -4.1491   -0.6037 H   0  0  0  0  0  0  0  0  0  0  0  0
    2.1383   -4.4727   -1.7192 H   0  0  0  0  0  0  0  0  0  0  0  0
    1.8200   -4.3094    0.0154 H   0  0  0  0  0  0  0  0  0  0  0  0
    1.0578    0.8109    2.5639 H   0  0  0  0  0  0  0  0  0  0  0  0
    2.5353    0.9115    3.5165 H   0  0  0  0  0  0  0  0  0  0  0  0
    2.0042   -0.6505    2.9059 H   0  0  0  0  0  0  0  0  0  0  0  0
  1  2  1  0  0  0  0
  1 10  1  0  0  0  0
  2 11  1  0  0  0  0
  2 12  1  0  0  0  0
  3  9  1  0  0  0  0
  3  4  1  0  0  0  0
  3  2  1  0  0  0  0
  3 13  1  1  0  0  0
  4  5  1  0  0  0  0
  4  6  1  0  0  0  0
  4 14  1  1  0  0  0
  5 15  1  0  0  0  0
  6  7  1  0  0  0  0
  6 16  1  0  0  0  0
  6 17  1  0  0  0  0
  7  8  1  0  0  0  0
  7 18  1  0  0  0  0
  7 19  1  0  0  0  0
  8 20  1  0  0  0  0
  8 21  1  0  0  0  0
  8 22  1  0  0  0  0
  9 23  1  0  0  0  0
  9 24  1  0  0  0  0
  9 25  1  0  0  0  0
M  END
$$$$
