
 OpenBabel09232516063D

 13 12  0  0  0  0  0  0  0  0999 V2000
    0.8774    0.0291   -0.0313 S   0  0  0  0  0  0  0  0  0  0  0  0
    2.6928    0.0276   -0.0384 C   0  0  0  0  0  0  0  0  0  0  0  0
    3.2306   -0.1579    1.3783 C   0  0  0  0  0  0  0  0  0  0  0  0
    4.7571   -0.1528    1.3751 C   0  0  0  0  0  0  0  0  0  0  0  0
    5.4059   -0.3760    3.0561 S   0  0  0  0  0  0  0  0  0  0  0  0
    0.7166    0.1804   -1.3540 H   0  0  0  0  0  0  0  0  0  0  0  0
    3.0375    0.9765   -0.4617 H   0  0  0  0  0  0  0  0  0  0  0  0
    3.0369   -0.7803   -0.6921 H   0  0  0  0  0  0  0  0  0  0  0  0
    2.8648   -1.1069    1.7918 H   0  0  0  0  0  0  0  0  0  0  0  0
    2.8597    0.6502    2.0229 H   0  0  0  0  0  0  0  0  0  0  0  0
    5.1400    0.7934    0.9798 H   0  0  0  0  0  0  0  0  0  0  0  0
    5.1432   -0.9630    0.7482 H   0  0  0  0  0  0  0  0  0  0  0  0
    4.8475    0.7215    3.5884 H   0  0  0  0  0  0  0  0  0  0  0  0
  1  2  1  0  0  0  0
  1  6  1  0  0  0  0
  2  3  1  0  0  0  0
  2  7  1  0  0  0  0
  2  8  1  0  0  0  0
  3  4  1  0  0  0  0
  3  9  1  0  0  0  0
  3 10  1  0  0  0  0
  4  5  1  0  0  0  0
  4 11  1  0  0  0  0
  4 12  1  0  0  0  0
  5 13  1  0  0  0  0
M  END
$$$$
