
 OpenBabel09032403383D

 20 19  0  0  0  0  0  0  0  0999 V2000
    2.3518    0.4488   -1.3208 C   0  0  0  0  0  0  0  0  0  0  0  0
    2.1218   -0.1672    0.0501 C   0  0  0  0  0  0  0  0  0  0  0  0
    2.9775   -1.4149    0.3164 C   0  0  0  0  0  0  0  0  0  0  0  0
    4.4715   -1.1719    0.3581 C   0  0  0  0  0  0  0  0  0  0  0  0
    5.3959   -1.7959   -0.4004 C   0  0  0  0  0  0  0  0  0  0  0  0
    5.3125   -2.8745   -1.4958 C   0  0  0  0  0  0  0  0  0  0  0  0
    4.1702   -3.3093   -1.7946 O   0  0  0  0  0  0  0  0  0  0  0  0
    6.4433   -3.1955   -1.9673 O   0  5  0  0  0  0  0  0  0  0  0  0
    4.9601   -0.1772    1.3776 C   0  0  0  0  0  0  0  0  0  0  0  0
    1.7122    1.3288   -1.4456 H   0  0  0  0  0  0  0  0  0  0  0  0
    2.1058   -0.2625   -2.1150 H   0  0  0  0  0  0  0  0  0  0  0  0
    3.3894    0.7699   -1.4498 H   0  0  0  0  0  0  0  0  0  0  0  0
    1.0644   -0.4473    0.1344 H   0  0  0  0  0  0  0  0  0  0  0  0
    2.2961    0.5937    0.8190 H   0  0  0  0  0  0  0  0  0  0  0  0
    2.6998   -2.1753   -0.4153 H   0  0  0  0  0  0  0  0  0  0  0  0
    2.6830   -1.8277    1.2904 H   0  0  0  0  0  0  0  0  0  0  0  0
    6.4421   -1.5231   -0.2423 H   0  0  0  0  0  0  0  0  0  0  0  0
    4.1537    0.1835    2.0226 H   0  0  0  0  0  0  0  0  0  0  0  0
    5.4056    0.6907    0.8796 H   0  0  0  0  0  0  0  0  0  0  0  0
    5.7094   -0.6335    2.0339 H   0  0  0  0  0  0  0  0  0  0  0  0
  1  2  1  0  0  0  0
  1 10  1  0  0  0  0
  1 11  1  0  0  0  0
  1 12  1  0  0  0  0
  2  3  1  0  0  0  0
  2 13  1  0  0  0  0
  2 14  1  0  0  0  0
  3  4  1  0  0  0  0
  3 15  1  0  0  0  0
  3 16  1  0  0  0  0
  4  5  2  3  0  0  0
  4  9  1  0  0  0  0
  5  6  1  0  0  0  0
  5 17  1  0  0  0  0
  6  7  2  0  0  0  0
  6  8  1  0  0  0  0
  9 18  1  0  0  0  0
  9 19  1  0  0  0  0
  9 20  1  0  0  0  0
M  CHG  1   8  -1
M  END
$$$$
