
 OpenBabel09172407183D

 19 18  0  0  0  0  0  0  0  0999 V2000
    0.9551   -0.0607   -0.0978 C   0  0  0  0  0  0  0  0  0  0  0  0
    2.4872   -0.0788   -0.0225 C   0  0  0  0  0  0  0  0  0  0  0  0
    3.0097    1.3186    0.3458 C   0  0  0  0  0  0  0  0  0  0  0  0
    2.9927   -1.1431    0.9788 C   0  0  0  0  0  0  0  0  0  0  0  0
    2.5842   -2.5772    0.6312 C   0  0  0  0  0  0  0  0  0  0  0  0
    3.1037   -3.4778    1.6061 O   0  0  0  0  0  0  0  0  0  0  0  0
    3.1468   -0.4918   -1.6958 S   0  0  0  0  0  0  0  0  0  0  0  0
    0.5128    0.2113    0.8681 H   0  0  0  0  0  0  0  0  0  0  0  0
    0.5476   -1.0376   -0.3777 H   0  0  0  0  0  0  0  0  0  0  0  0
    0.5926    0.6650   -0.8346 H   0  0  0  0  0  0  0  0  0  0  0  0
    2.6282    1.6445    1.3210 H   0  0  0  0  0  0  0  0  0  0  0  0
    2.6960    2.0742   -0.3854 H   0  0  0  0  0  0  0  0  0  0  0  0
    4.1050    1.3404    0.4020 H   0  0  0  0  0  0  0  0  0  0  0  0
    2.6304   -0.9150    1.9909 H   0  0  0  0  0  0  0  0  0  0  0  0
    4.0881   -1.1006    1.0563 H   0  0  0  0  0  0  0  0  0  0  0  0
    2.9653   -2.8907   -0.3448 H   0  0  0  0  0  0  0  0  0  0  0  0
    1.4996   -2.6921    0.6262 H   0  0  0  0  0  0  0  0  0  0  0  0
    4.0646   -3.4393    1.5458 H   0  0  0  0  0  0  0  0  0  0  0  0
    2.5842    0.5364   -2.3492 H   0  0  0  0  0  0  0  0  0  0  0  0
  1  2  1  0  0  0  0
  1  8  1  0  0  0  0
  1  9  1  0  0  0  0
  1 10  1  0  0  0  0
  2  3  1  0  0  0  0
  2  4  1  0  0  0  0
  2  7  1  0  0  0  0
  3 11  1  0  0  0  0
  3 12  1  0  0  0  0
  3 13  1  0  0  0  0
  4  5  1  0  0  0  0
  4 14  1  0  0  0  0
  4 15  1  0  0  0  0
  5  6  1  0  0  0  0
  5 16  1  0  0  0  0
  5 17  1  0  0  0  0
  6 18  1  0  0  0  0
  7 19  1  0  0  0  0
M  END
$$$$
