
 OpenBabel10052407573D

 27 26  0  0  1  0  0  0  0  0999 V2000
    0.8364   -0.0651    0.0075 C   0  0  0  0  0  0  0  0  0  0  0  0
    2.3556   -0.0615   -0.0723 C   0  0  0  0  0  0  0  0  0  0  0  0
    2.9531    0.9622    0.8997 C   0  0  0  0  0  0  0  0  0  0  0  0
    4.4924    0.9826    0.9425 C   0  0  1  0  0  0  0  0  0  0  0  0
    5.1945    1.4308   -0.6930 S   0  0  0  0  0  0  0  0  0  0  0  0
    5.0415    1.9843    1.9697 C   0  0  0  0  0  0  0  0  0  0  0  0
    4.6646    1.6491    3.4130 C   0  0  0  0  0  0  0  0  0  0  0  0
    5.2085    2.6365    4.3058 O   0  0  0  0  0  0  0  0  0  0  0  0
    4.4654    3.7695    4.4383 C   0  0  0  0  0  0  0  0  0  0  0  0
    3.4187    4.0042    3.8485 O   0  0  0  0  0  0  0  0  0  0  0  0
    5.1094    4.7195    5.4006 C   0  0  0  0  0  0  0  0  0  0  0  0
    0.4204   -0.7927   -0.6978 H   0  0  0  0  0  0  0  0  0  0  0  0
    0.4290    0.9199   -0.2398 H   0  0  0  0  0  0  0  0  0  0  0  0
    0.4956   -0.3352    1.0129 H   0  0  0  0  0  0  0  0  0  0  0  0
    2.6456    0.1612   -1.1040 H   0  0  0  0  0  0  0  0  0  0  0  0
    2.7321   -1.0630    0.1661 H   0  0  0  0  0  0  0  0  0  0  0  0
    2.5716    0.7162    1.8971 H   0  0  0  0  0  0  0  0  0  0  0  0
    2.5704    1.9637    0.6637 H   0  0  0  0  0  0  0  0  0  0  0  0
    4.8629   -0.0203    1.1839 H   0  0  0  0  0  0  0  0  0  0  0  0
    4.5773    2.6174   -0.8058 H   0  0  0  0  0  0  0  0  0  0  0  0
    4.7023    3.0001    1.7292 H   0  0  0  0  0  0  0  0  0  0  0  0
    6.1386    2.0213    1.9167 H   0  0  0  0  0  0  0  0  0  0  0  0
    5.0981    0.6845    3.6984 H   0  0  0  0  0  0  0  0  0  0  0  0
    3.5838    1.5704    3.5674 H   0  0  0  0  0  0  0  0  0  0  0  0
    5.9826    4.2635    5.8752 H   0  0  0  0  0  0  0  0  0  0  0  0
    4.3910    4.9766    6.1832 H   0  0  0  0  0  0  0  0  0  0  0  0
    5.4292    5.6161    4.8638 H   0  0  0  0  0  0  0  0  0  0  0  0
  1  2  1  0  0  0  0
  1 12  1  0  0  0  0
  1 13  1  0  0  0  0
  1 14  1  0  0  0  0
  2  3  1  0  0  0  0
  2 15  1  0  0  0  0
  2 16  1  0  0  0  0
  3  4  1  0  0  0  0
  3 17  1  0  0  0  0
  3 18  1  0  0  0  0
  4  5  1  0  0  0  0
  4  6  1  0  0  0  0
  4 19  1  1  0  0  0
  5 20  1  0  0  0  0
  6  7  1  0  0  0  0
  6 21  1  0  0  0  0
  6 22  1  0  0  0  0
  7  8  1  0  0  0  0
  7 23  1  0  0  0  0
  7 24  1  0  0  0  0
  8  9  1  0  0  0  0
  9 10  2  0  0  0  0
  9 11  1  0  0  0  0
 11 25  1  0  0  0  0
 11 26  1  0  0  0  0
 11 27  1  0  0  0  0
M  END
$$$$
