
 OpenBabel12272413163D

 22 21  0  0  0  0  0  0  0  0999 V2000
    0.9398   -0.2399    0.0016 C   0  0  0  0  0  0  0  0  0  0  0  0
    2.3573   -0.1302   -0.0307 O   0  0  0  0  0  0  0  0  0  0  0  0
    2.7669    1.1925   -0.3804 C   0  0  0  0  0  0  0  0  0  0  0  0
    4.2945    1.2419   -0.4037 C   0  0  0  0  0  0  0  0  0  0  0  0
    4.8850    2.6219   -0.7663 C   0  0  0  0  0  0  0  0  0  0  0  0
    4.4529    3.0848   -2.1638 C   0  0  0  0  0  0  0  0  0  0  0  0
    4.5237    3.6896    0.2741 C   0  0  0  0  0  0  0  0  0  0  0  0
    6.7223    2.4693   -0.7734 S   0  0  0  0  0  0  0  0  0  0  0  0
    0.6787   -1.2648    0.2787 H   0  0  0  0  0  0  0  0  0  0  0  0
    0.5173   -0.0261   -0.9845 H   0  0  0  0  0  0  0  0  0  0  0  0
    0.5190    0.4408    0.7466 H   0  0  0  0  0  0  0  0  0  0  0  0
    2.3670    1.8928    0.3595 H   0  0  0  0  0  0  0  0  0  0  0  0
    2.3569    1.4367   -1.3656 H   0  0  0  0  0  0  0  0  0  0  0  0
    4.6477    0.4773   -1.1105 H   0  0  0  0  0  0  0  0  0  0  0  0
    4.6620    0.9177    0.5803 H   0  0  0  0  0  0  0  0  0  0  0  0
    3.3758    3.2780   -2.2030 H   0  0  0  0  0  0  0  0  0  0  0  0
    4.6792    2.3308   -2.9271 H   0  0  0  0  0  0  0  0  0  0  0  0
    4.9480    4.0195   -2.4532 H   0  0  0  0  0  0  0  0  0  0  0  0
    3.4455    3.8821    0.2883 H   0  0  0  0  0  0  0  0  0  0  0  0
    5.0086    4.6491    0.0566 H   0  0  0  0  0  0  0  0  0  0  0  0
    4.8150    3.3837    1.2861 H   0  0  0  0  0  0  0  0  0  0  0  0
    6.8065    1.5780   -1.7721 H   0  0  0  0  0  0  0  0  0  0  0  0
  1  2  1  0  0  0  0
  1  9  1  0  0  0  0
  1 10  1  0  0  0  0
  1 11  1  0  0  0  0
  2  3  1  0  0  0  0
  3  4  1  0  0  0  0
  3 12  1  0  0  0  0
  3 13  1  0  0  0  0
  4  5  1  0  0  0  0
  4 14  1  0  0  0  0
  4 15  1  0  0  0  0
  5  6  1  0  0  0  0
  5  7  1  0  0  0  0
  5  8  1  0  0  0  0
  6 16  1  0  0  0  0
  6 17  1  0  0  0  0
  6 18  1  0  0  0  0
  7 19  1  0  0  0  0
  7 20  1  0  0  0  0
  7 21  1  0  0  0  0
  8 22  1  0  0  0  0
M  END
$$$$
