
 OpenBabel09082520483D

 27 26  0  0  0  0  0  0  0  0999 V2000
    1.0195    0.1339    0.2328 O   0  0  0  0  0  0  0  0  0  0  0  0
    2.2366    0.0354    0.1265 C   0  0  0  0  0  0  0  0  0  0  0  0
    3.1445    0.8360    0.9774 C   0  0  0  0  0  0  0  0  0  0  0  0
    4.4917    0.8060    0.9446 C   0  0  0  0  0  0  0  0  0  0  0  0
    5.3087   -0.0623    0.0190 C   0  0  0  0  0  0  0  0  0  0  0  0
    5.2313    1.6769    1.8629 C   0  0  0  0  0  0  0  0  0  0  0  0
    6.5697    1.7598    1.9581 C   0  0  0  0  0  0  0  0  0  0  0  0
    7.3033    2.6709    2.8994 C   0  0  0  0  0  0  0  0  0  0  0  0
    8.2006    3.6379    2.1241 C   0  0  0  0  0  0  0  0  0  0  0  0
    8.9864    4.5515    3.0634 C   0  0  0  0  0  0  0  0  0  0  0  0
    9.8705    5.5136    2.2858 C   0  0  0  0  0  0  0  0  0  0  0  0
    2.6929   -0.6474   -0.6018 H   0  0  0  0  0  0  0  0  0  0  0  0
    2.6081    1.4847    1.6661 H   0  0  0  0  0  0  0  0  0  0  0  0
    4.7135   -0.6882   -0.6462 H   0  0  0  0  0  0  0  0  0  0  0  0
    5.9465   -0.7410    0.5968 H   0  0  0  0  0  0  0  0  0  0  0  0
    5.9436    0.5586   -0.6237 H   0  0  0  0  0  0  0  0  0  0  0  0
    4.6328    2.3116    2.5188 H   0  0  0  0  0  0  0  0  0  0  0  0
    7.2108    1.1453    1.3311 H   0  0  0  0  0  0  0  0  0  0  0  0
    7.9153    2.0544    3.5697 H   0  0  0  0  0  0  0  0  0  0  0  0
    6.6040    3.2336    3.5297 H   0  0  0  0  0  0  0  0  0  0  0  0
    7.5882    4.2471    1.4468 H   0  0  0  0  0  0  0  0  0  0  0  0
    8.9023    3.0724    1.4974 H   0  0  0  0  0  0  0  0  0  0  0  0
    9.6109    3.9494    3.7333 H   0  0  0  0  0  0  0  0  0  0  0  0
    8.2944    5.1253    3.6912 H   0  0  0  0  0  0  0  0  0  0  0  0
   10.5967    4.9703    1.6725 H   0  0  0  0  0  0  0  0  0  0  0  0
   10.4229    6.1618    2.9729 H   0  0  0  0  0  0  0  0  0  0  0  0
    9.2716    6.1494    1.6256 H   0  0  0  0  0  0  0  0  0  0  0  0
  1  2  2  0  0  0  0
  2  3  1  0  0  0  0
  2 12  1  0  0  0  0
  3  4  2  3  0  0  0
  3 13  1  0  0  0  0
  4  5  1  0  0  0  0
  4  6  1  0  0  0  0
  5 14  1  0  0  0  0
  5 15  1  0  0  0  0
  5 16  1  0  0  0  0
  6  7  2  3  0  0  0
  6 17  1  0  0  0  0
  7  8  1  0  0  0  0
  7 18  1  0  0  0  0
  8  9  1  0  0  0  0
  8 19  1  0  0  0  0
  8 20  1  0  0  0  0
  9 10  1  0  0  0  0
  9 21  1  0  0  0  0
  9 22  1  0  0  0  0
 10 11  1  0  0  0  0
 10 23  1  0  0  0  0
 10 24  1  0  0  0  0
 11 25  1  0  0  0  0
 11 26  1  0  0  0  0
 11 27  1  0  0  0  0
M  END
$$$$
