
 OpenBabel12232422263D

 23 22  0  0  0  0  0  0  0  0999 V2000
    0.9410    0.0436   -0.0835 C   0  0  0  0  0  0  0  0  0  0  0  0
    2.4603    0.0519   -0.0687 C   0  0  0  0  0  0  0  0  0  0  0  0
    2.9916    0.8972    1.0886 C   0  0  0  0  0  0  0  0  0  0  0  0
    4.5187    0.9102    1.1041 C   0  0  0  0  0  0  0  0  0  0  0  0
    5.0472    1.7397    2.2367 C   0  0  0  0  0  0  0  0  0  0  0  0
    5.8309    2.8140    2.0573 C   0  0  0  0  0  0  0  0  0  0  0  0
    6.3298    3.5989    3.2212 C   0  0  0  0  0  0  0  0  0  0  0  0
    6.0406    3.2925    4.3766 O   0  0  0  0  0  0  0  0  0  0  0  0
    7.2050    4.7896    2.9286 C   0  0  0  0  0  0  0  0  0  0  0  0
    0.5711   -0.5631   -0.9151 H   0  0  0  0  0  0  0  0  0  0  0  0
    0.5474    1.0585   -0.1991 H   0  0  0  0  0  0  0  0  0  0  0  0
    0.5451   -0.3743    0.8475 H   0  0  0  0  0  0  0  0  0  0  0  0
    2.8300    0.4482   -1.0217 H   0  0  0  0  0  0  0  0  0  0  0  0
    2.8281   -0.9771    0.0195 H   0  0  0  0  0  0  0  0  0  0  0  0
    2.6114    0.4974    2.0379 H   0  0  0  0  0  0  0  0  0  0  0  0
    2.6109    1.9223    0.9980 H   0  0  0  0  0  0  0  0  0  0  0  0
    4.8887    1.2936    0.1449 H   0  0  0  0  0  0  0  0  0  0  0  0
    4.8993   -0.1123    1.2087 H   0  0  0  0  0  0  0  0  0  0  0  0
    4.7724    1.4317    3.2459 H   0  0  0  0  0  0  0  0  0  0  0  0
    6.1268    3.1411    1.0679 H   0  0  0  0  0  0  0  0  0  0  0  0
    7.3620    4.9193    1.8536 H   0  0  0  0  0  0  0  0  0  0  0  0
    8.1767    4.6435    3.4060 H   0  0  0  0  0  0  0  0  0  0  0  0
    6.7240    5.6895    3.3197 H   0  0  0  0  0  0  0  0  0  0  0  0
  1  2  1  0  0  0  0
  1 10  1  0  0  0  0
  1 11  1  0  0  0  0
  1 12  1  0  0  0  0
  2  3  1  0  0  0  0
  2 13  1  0  0  0  0
  2 14  1  0  0  0  0
  3  4  1  0  0  0  0
  3 15  1  0  0  0  0
  3 16  1  0  0  0  0
  4  5  1  0  0  0  0
  4 17  1  0  0  0  0
  4 18  1  0  0  0  0
  5  6  2  3  0  0  0
  5 19  1  0  0  0  0
  6  7  1  0  0  0  0
  6 20  1  0  0  0  0
  7  8  2  0  0  0  0
  7  9  1  0  0  0  0
  9 21  1  0  0  0  0
  9 22  1  0  0  0  0
  9 23  1  0  0  0  0
M  END
$$$$
