
 OpenBabel02072510523D

 27 26  0  0  1  0  0  0  0  0999 V2000
   10.4104   -3.1308   -1.0193 C   0  0  0  0  0  0  0  0  0  0  0  0
    9.9605   -1.6806   -0.9395 C   0  0  0  0  0  0  0  0  0  0  0  0
    8.6823   -1.4411   -1.7424 C   0  0  0  0  0  0  0  0  0  0  0  0
    8.2380    0.0196   -1.6460 C   0  0  0  0  0  0  0  0  0  0  0  0
    6.9505    0.2753   -2.4392 C   0  0  0  0  0  0  0  0  0  0  0  0
    6.4948    1.7380   -2.3343 C   0  0  2  0  0  0  0  0  0  0  0  0
    6.2607    2.0617   -0.9646 O   0  0  0  0  0  0  0  0  0  0  0  0
    5.2146    1.9904   -3.1397 C   0  0  0  0  0  0  0  0  0  0  0  0
    4.7662    3.4459   -3.0747 C   0  0  0  0  0  0  0  0  0  0  0  0
   11.3236   -3.2777   -0.4337 H   0  0  0  0  0  0  0  0  0  0  0  0
   10.6206   -3.4202   -2.0536 H   0  0  0  0  0  0  0  0  0  0  0  0
    9.6418   -3.8024   -0.6231 H   0  0  0  0  0  0  0  0  0  0  0  0
   10.7636   -1.0355   -1.3153 H   0  0  0  0  0  0  0  0  0  0  0  0
    9.7977   -1.4144    0.1115 H   0  0  0  0  0  0  0  0  0  0  0  0
    7.8853   -2.0936   -1.3649 H   0  0  0  0  0  0  0  0  0  0  0  0
    8.8503   -1.7084   -2.7922 H   0  0  0  0  0  0  0  0  0  0  0  0
    9.0346    0.6716   -2.0243 H   0  0  0  0  0  0  0  0  0  0  0  0
    8.0833    0.2771   -0.5914 H   0  0  0  0  0  0  0  0  0  0  0  0
    6.1640   -0.3828   -2.0483 H   0  0  0  0  0  0  0  0  0  0  0  0
    7.1082    0.0109   -3.4918 H   0  0  0  0  0  0  0  0  0  0  0  0
    7.2925    2.3968   -2.6956 H   0  0  0  0  0  0  0  0  0  0  0  0
    5.5668    1.4656   -0.6342 H   0  0  0  0  0  0  0  0  0  0  0  0
    4.4035    1.3675   -2.7467 H   0  0  0  0  0  0  0  0  0  0  0  0
    5.3686    1.7105   -4.1889 H   0  0  0  0  0  0  0  0  0  0  0  0
    4.6370    3.7827   -2.0413 H   0  0  0  0  0  0  0  0  0  0  0  0
    3.8069    3.5679   -3.5875 H   0  0  0  0  0  0  0  0  0  0  0  0
    5.4958    4.1014   -3.5607 H   0  0  0  0  0  0  0  0  0  0  0  0
  1  2  1  0  0  0  0
  1 10  1  0  0  0  0
  1 11  1  0  0  0  0
  1 12  1  0  0  0  0
  2  3  1  0  0  0  0
  2 13  1  0  0  0  0
  2 14  1  0  0  0  0
  3  4  1  0  0  0  0
  3 15  1  0  0  0  0
  3 16  1  0  0  0  0
  4  5  1  0  0  0  0
  4 17  1  0  0  0  0
  4 18  1  0  0  0  0
  5 19  1  0  0  0  0
  5 20  1  0  0  0  0
  6  8  1  0  0  0  0
  6  7  1  0  0  0  0
  6  5  1  0  0  0  0
  6 21  1  6  0  0  0
  7 22  1  0  0  0  0
  8  9  1  0  0  0  0
  8 23  1  0  0  0  0
  8 24  1  0  0  0  0
  9 25  1  0  0  0  0
  9 26  1  0  0  0  0
  9 27  1  0  0  0  0
M  END
$$$$
