
 OpenBabel08282421463D

 23 23  0  0  1  0  0  0  0  0999 V2000
    0.7701   -0.2918   -1.0139 C   0  0  0  0  0  0  0  0  0  0  0  0
    0.2173    0.9869   -0.9192 C   0  0  0  0  0  0  0  0  0  0  0  0
   -0.5849    1.3257    0.1678 C   0  0  0  0  0  0  0  0  0  0  0  0
   -0.8298    0.3843    1.1659 C   0  0  0  0  0  0  0  0  0  0  0  0
   -0.2804   -0.8954    1.0728 C   0  0  0  0  0  0  0  0  0  0  0  0
    0.5218   -1.2549   -0.0235 C   0  0  0  0  0  0  0  0  0  0  0  0
    1.0761   -2.6678   -0.1172 C   0  0  1  0  0  0  0  0  0  0  0  0
    0.5519   -3.3664   -1.3784 C   0  0  0  0  0  0  0  0  0  0  0  0
    2.6096   -2.7246   -0.0830 C   0  0  0  0  0  0  0  0  0  0  0  0
    3.1624   -2.2057    1.2195 C   0  0  0  0  0  0  0  0  0  0  0  0
    3.8176   -2.8983    1.9926 O   0  0  0  0  0  0  0  0  0  0  0  0
    1.3825   -0.5309   -1.8809 H   0  0  0  0  0  0  0  0  0  0  0  0
    0.4042    1.7187   -1.7017 H   0  0  0  0  0  0  0  0  0  0  0  0
   -1.0243    2.3162    0.2348 H   0  0  0  0  0  0  0  0  0  0  0  0
   -1.4558    0.6455    2.0154 H   0  0  0  0  0  0  0  0  0  0  0  0
   -0.4945   -1.6148    1.8607 H   0  0  0  0  0  0  0  0  0  0  0  0
    0.7032   -3.2414    0.7429 H   0  0  0  0  0  0  0  0  0  0  0  0
    0.8882   -2.8656   -2.2935 H   0  0  0  0  0  0  0  0  0  0  0  0
   -0.5439   -3.3808   -1.3914 H   0  0  0  0  0  0  0  0  0  0  0  0
    0.9012   -4.4030   -1.4224 H   0  0  0  0  0  0  0  0  0  0  0  0
    3.0628   -2.1500   -0.8967 H   0  0  0  0  0  0  0  0  0  0  0  0
    2.9417   -3.7652   -0.1897 H   0  0  0  0  0  0  0  0  0  0  0  0
    2.9787   -1.1387    1.4357 H   0  0  0  0  0  0  0  0  0  0  0  0
  1  2  1  0  0  0  0
  1  6  2  0  0  0  0
  1 12  1  0  0  0  0
  2  3  2  0  0  0  0
  2 13  1  0  0  0  0
  3  4  1  0  0  0  0
  3 14  1  0  0  0  0
  4  5  2  0  0  0  0
  4 15  1  0  0  0  0
  5  6  1  0  0  0  0
  5 16  1  0  0  0  0
  6  7  1  0  0  0  0
  7  8  1  0  0  0  0
  7  9  1  0  0  0  0
  7 17  1  1  0  0  0
  8 18  1  0  0  0  0
  8 19  1  0  0  0  0
  8 20  1  0  0  0  0
  9 10  1  0  0  0  0
  9 21  1  0  0  0  0
  9 22  1  0  0  0  0
 10 11  2  0  0  0  0
 10 23  1  0  0  0  0
M  END
$$$$
