
 OpenBabel10142512203D

 20 20  0  0  0  0  0  0  0  0999 V2000
    5.2018    1.2473   -2.4335 O   0  5  0  0  0  0  0  0  0  0  0  0
    4.6450    0.6674   -1.4572 C   0  0  0  0  0  0  0  0  0  0  0  0
    3.6145   -0.0608   -1.4462 O   0  0  0  0  0  0  0  0  0  0  0  0
    5.3334    0.9061   -0.1143 C   0  0  0  0  0  0  0  0  0  0  0  0
    4.6388    0.2298    1.0619 C   0  0  0  0  0  0  0  0  0  0  0  0
    5.3169    0.4971    2.3900 C   0  0  0  0  0  0  0  0  0  0  0  0
    5.4644    1.8072    2.8666 C   0  0  0  0  0  0  0  0  0  0  0  0
    6.0626    2.0530    4.1032 C   0  0  0  0  0  0  0  0  0  0  0  0
    6.5110    0.9903    4.8841 C   0  0  0  0  0  0  0  0  0  0  0  0
    6.3666   -0.3182    4.4248 C   0  0  0  0  0  0  0  0  0  0  0  0
    5.7733   -0.5640    3.1845 C   0  0  0  0  0  0  0  0  0  0  0  0
    5.3774    1.9912    0.0365 H   0  0  0  0  0  0  0  0  0  0  0  0
    6.3679    0.5486   -0.1917 H   0  0  0  0  0  0  0  0  0  0  0  0
    4.5953   -0.8532    0.8841 H   0  0  0  0  0  0  0  0  0  0  0  0
    3.5973    0.5670    1.1412 H   0  0  0  0  0  0  0  0  0  0  0  0
    5.1099    2.6437    2.2685 H   0  0  0  0  0  0  0  0  0  0  0  0
    6.1743    3.0754    4.4522 H   0  0  0  0  0  0  0  0  0  0  0  0
    6.9706    1.1814    5.8488 H   0  0  0  0  0  0  0  0  0  0  0  0
    6.7134   -1.1495    5.0312 H   0  0  0  0  0  0  0  0  0  0  0  0
    5.6650   -1.5885    2.8365 H   0  0  0  0  0  0  0  0  0  0  0  0
  1  2  1  0  0  0  0
  2  3  2  0  0  0  0
  2  4  1  0  0  0  0
  4  5  1  0  0  0  0
  4 12  1  0  0  0  0
  4 13  1  0  0  0  0
  5  6  1  0  0  0  0
  5 14  1  0  0  0  0
  5 15  1  0  0  0  0
  6  7  1  0  0  0  0
  6 11  2  0  0  0  0
  7  8  2  0  0  0  0
  7 16  1  0  0  0  0
  8  9  1  0  0  0  0
  8 17  1  0  0  0  0
  9 10  2  0  0  0  0
  9 18  1  0  0  0  0
 10 11  1  0  0  0  0
 10 19  1  0  0  0  0
 11 20  1  0  0  0  0
M  CHG  1   1  -1
M  END
$$$$
