
 OpenBabel01102518253D

 28 28  0  0  1  0  0  0  0  0999 V2000
    1.6252    0.6247    1.5083 C   0  0  0  0  0  0  0  0  0  0  0  0
    3.0342    0.7921    0.9630 C   0  0  0  0  0  0  0  0  0  0  0  0
    4.0724    0.2028    1.9166 C   0  0  0  0  0  0  0  0  0  0  0  0
    5.4903    0.3493    1.3564 C   0  0  0  0  0  0  0  0  0  0  0  0
    6.5565   -0.2624    2.2696 C   0  0  0  0  0  0  0  0  0  0  0  0
    6.3649   -1.7366    2.4332 C   0  0  1  0  0  0  0  0  0  0  0  0
    7.2887   -2.3739    3.3216 O   0  0  0  0  0  0  0  0  0  0  0  0
    5.9226   -2.3126    3.7627 C   0  0  2  0  0  0  0  0  0  0  0  0
    4.9938   -3.4488    3.7214 C   0  0  0  0  0  0  0  0  0  0  0  0
    5.3412   -4.7424    3.7049 C   0  0  0  0  0  0  0  0  0  0  0  0
    4.3094   -5.7934    3.6441 C   0  0  0  0  0  0  0  0  0  0  0  0
    4.6057   -6.9804    3.6163 O   0  0  0  0  0  0  0  0  0  0  0  0
    0.8960    1.0527    0.8137 H   0  0  0  0  0  0  0  0  0  0  0  0
    1.5153    1.1298    2.4731 H   0  0  0  0  0  0  0  0  0  0  0  0
    1.3815   -0.4343    1.6459 H   0  0  0  0  0  0  0  0  0  0  0  0
    3.2367    1.8569    0.8008 H   0  0  0  0  0  0  0  0  0  0  0  0
    3.1017    0.2954   -0.0122 H   0  0  0  0  0  0  0  0  0  0  0  0
    3.8392   -0.8554    2.0800 H   0  0  0  0  0  0  0  0  0  0  0  0
    4.0094    0.7020    2.8911 H   0  0  0  0  0  0  0  0  0  0  0  0
    5.7165    1.4126    1.2129 H   0  0  0  0  0  0  0  0  0  0  0  0
    5.5428   -0.1248    0.3679 H   0  0  0  0  0  0  0  0  0  0  0  0
    6.5485    0.2466    3.2406 H   0  0  0  0  0  0  0  0  0  0  0  0
    7.5428   -0.0839    1.8251 H   0  0  0  0  0  0  0  0  0  0  0  0
    6.1501   -2.2545    1.5078 H   0  0  0  0  0  0  0  0  0  0  0  0
    5.7276   -1.6265    4.5820 H   0  0  0  0  0  0  0  0  0  0  0  0
    3.9415   -3.1765    3.6988 H   0  0  0  0  0  0  0  0  0  0  0  0
    6.3752   -5.0719    3.7228 H   0  0  0  0  0  0  0  0  0  0  0  0
    3.2613   -5.4516    3.6219 H   0  0  0  0  0  0  0  0  0  0  0  0
  1  2  1  0  0  0  0
  1 13  1  0  0  0  0
  1 14  1  0  0  0  0
  1 15  1  0  0  0  0
  2  3  1  0  0  0  0
  2 16  1  0  0  0  0
  2 17  1  0  0  0  0
  3  4  1  0  0  0  0
  3 18  1  0  0  0  0
  3 19  1  0  0  0  0
  4  5  1  0  0  0  0
  4 20  1  0  0  0  0
  4 21  1  0  0  0  0
  5 22  1  0  0  0  0
  5 23  1  0  0  0  0
  6  7  1  0  0  0  0
  6  8  1  0  0  0  0
  6  5  1  0  0  0  0
  6 24  1  6  0  0  0
  7  8  1  0  0  0  0
  8  9  1  0  0  0  0
  8 25  1  1  0  0  0
  9 10  2  0  0  0  0
  9 26  1  0  0  0  0
 10 11  1  0  0  0  0
 10 27  1  0  0  0  0
 11 12  2  0  0  0  0
 11 28  1  0  0  0  0
M  END
$$$$
