
 OpenBabel12012402423D

 19 20  0  0  0  0  0  0  0  0999 V2000
   -2.3273    0.3119   -0.3515 C   0  0  0  0  0  0  0  0  0  0  0  0
   -1.7898    1.5393    0.3546 C   0  0  0  0  0  0  0  0  0  0  0  0
   -0.4796    1.8924   -0.0992 O   0  0  0  0  0  0  0  0  0  0  0  0
    0.4138    0.8560   -0.0320 C   0  0  0  0  0  0  0  0  0  0  0  0
    1.7654    1.1973   -0.0226 C   0  0  0  0  0  0  0  0  0  0  0  0
    2.7396    0.1972    0.0171 C   0  0  0  0  0  0  0  0  0  0  0  0
    2.3642   -1.1475    0.0405 C   0  0  0  0  0  0  0  0  0  0  0  0
    1.0145   -1.4948    0.0268 C   0  0  0  0  0  0  0  0  0  0  0  0
    0.0421   -0.4895   -0.0141 C   0  0  0  0  0  0  0  0  0  0  0  0
   -1.3903   -0.8328   -0.0928 C   0  0  0  0  0  0  0  0  0  0  0  0
   -1.7725   -1.9956   -0.0148 O   0  0  0  0  0  0  0  0  0  0  0  0
   -2.3841    0.4632   -1.4345 H   0  0  0  0  0  0  0  0  0  0  0  0
   -3.3207    0.0628    0.0340 H   0  0  0  0  0  0  0  0  0  0  0  0
   -1.7679    1.4065    1.4440 H   0  0  0  0  0  0  0  0  0  0  0  0
   -2.4431    2.3935    0.1464 H   0  0  0  0  0  0  0  0  0  0  0  0
    2.0619    2.2435   -0.0431 H   0  0  0  0  0  0  0  0  0  0  0  0
    3.7929    0.4669    0.0253 H   0  0  0  0  0  0  0  0  0  0  0  0
    3.1248   -1.9248    0.0595 H   0  0  0  0  0  0  0  0  0  0  0  0
    0.7208   -2.5429    0.0277 H   0  0  0  0  0  0  0  0  0  0  0  0
  1  2  1  0  0  0  0
  1 10  1  0  0  0  0
  1 12  1  0  0  0  0
  1 13  1  0  0  0  0
  2  3  1  0  0  0  0
  2 14  1  0  0  0  0
  2 15  1  0  0  0  0
  3  4  1  0  0  0  0
  4  5  2  0  0  0  0
  4  9  1  0  0  0  0
  5  6  1  0  0  0  0
  5 16  1  0  0  0  0
  6  7  2  0  0  0  0
  6 17  1  0  0  0  0
  7  8  1  0  0  0  0
  7 18  1  0  0  0  0
  8  9  2  0  0  0  0
  8 19  1  0  0  0  0
  9 10  1  0  0  0  0
 10 11  2  0  0  0  0
M  END
$$$$
