
 OpenBabel09032404443D

 31 30  0  0  1  0  0  0  0  0999 V2000
    3.2824   -0.3625    3.1113 O   0  5  0  0  0  0  0  0  0  0  0  0
    4.4581   -0.6289    2.7592 C   0  0  0  0  0  0  0  0  0  0  0  0
    5.4450   -1.0196    3.4520 O   0  0  0  0  0  0  0  0  0  0  0  0
    4.7476   -0.4836    1.2620 C   0  0  0  0  0  0  0  0  0  0  0  0
    4.4993    0.9269    0.7244 C   0  0  0  0  0  0  0  0  0  0  0  0
    5.3854    2.0295    1.3503 C   0  0  2  0  0  0  0  0  0  0  0  0
    5.0103    3.3886    0.7432 C   0  0  0  0  0  0  0  0  0  0  0  0
    6.8997    1.7661    1.1650 C   0  0  0  0  0  0  0  0  0  0  0  0
    7.7642    2.8199    1.8669 C   0  0  0  0  0  0  0  0  0  0  0  0
    9.2630    2.5914    1.6881 C   0  0  0  0  0  0  0  0  0  0  0  0
   10.0346    3.7026    2.4051 C   0  0  0  0  0  0  0  0  0  0  0  0
   11.5355    3.5306    2.2713 C   0  0  0  0  0  0  0  0  0  0  0  0
    4.0977   -1.1941    0.7396 H   0  0  0  0  0  0  0  0  0  0  0  0
    5.7728   -0.8011    1.0439 H   0  0  0  0  0  0  0  0  0  0  0  0
    3.4420    1.1847    0.8821 H   0  0  0  0  0  0  0  0  0  0  0  0
    4.6451    0.9167   -0.3646 H   0  0  0  0  0  0  0  0  0  0  0  0
    5.1654    2.0716    2.4259 H   0  0  0  0  0  0  0  0  0  0  0  0
    5.2274    3.4109   -0.3299 H   0  0  0  0  0  0  0  0  0  0  0  0
    5.5598    4.2075    1.2145 H   0  0  0  0  0  0  0  0  0  0  0  0
    3.9517    3.6093    0.8875 H   0  0  0  0  0  0  0  0  0  0  0  0
    7.1366    1.7470    0.0950 H   0  0  0  0  0  0  0  0  0  0  0  0
    7.1655    0.7850    1.5715 H   0  0  0  0  0  0  0  0  0  0  0  0
    7.5273    2.8217    2.9381 H   0  0  0  0  0  0  0  0  0  0  0  0
    7.5392    3.8174    1.4822 H   0  0  0  0  0  0  0  0  0  0  0  0
    9.5195    2.5856    0.6199 H   0  0  0  0  0  0  0  0  0  0  0  0
    9.5411    1.6160    2.0989 H   0  0  0  0  0  0  0  0  0  0  0  0
    9.7672    3.7088    3.4692 H   0  0  0  0  0  0  0  0  0  0  0  0
    9.7458    4.6780    1.9974 H   0  0  0  0  0  0  0  0  0  0  0  0
   11.8600    2.5854    2.7159 H   0  0  0  0  0  0  0  0  0  0  0  0
   12.0526    4.3457    2.7870 H   0  0  0  0  0  0  0  0  0  0  0  0
   11.8387    3.5443    1.2204 H   0  0  0  0  0  0  0  0  0  0  0  0
  1  2  1  0  0  0  0
  2  3  2  0  0  0  0
  2  4  1  0  0  0  0
  4  5  1  0  0  0  0
  4 13  1  0  0  0  0
  4 14  1  0  0  0  0
  5 15  1  0  0  0  0
  5 16  1  0  0  0  0
  6  8  1  0  0  0  0
  6  7  1  0  0  0  0
  6  5  1  0  0  0  0
  6 17  1  1  0  0  0
  7 18  1  0  0  0  0
  7 19  1  0  0  0  0
  7 20  1  0  0  0  0
  8  9  1  0  0  0  0
  8 21  1  0  0  0  0
  8 22  1  0  0  0  0
  9 10  1  0  0  0  0
  9 23  1  0  0  0  0
  9 24  1  0  0  0  0
 10 11  1  0  0  0  0
 10 25  1  0  0  0  0
 10 26  1  0  0  0  0
 11 12  1  0  0  0  0
 11 27  1  0  0  0  0
 11 28  1  0  0  0  0
 12 29  1  0  0  0  0
 12 30  1  0  0  0  0
 12 31  1  0  0  0  0
M  CHG  1   1  -1
M  END
$$$$
