
 OpenBabel10142512393D

 28 27  0  0  1  0  0  0  0  0999 V2000
    1.0400    0.1895   -0.0729 C   0  0  0  0  0  0  0  0  0  0  0  0
    2.5598    0.1227   -0.0459 C   0  0  0  0  0  0  0  0  0  0  0  0
    3.0400   -1.2713    0.3591 C   0  0  0  0  0  0  0  0  0  0  0  0
    4.5689   -1.3625    0.3902 C   0  0  0  0  0  0  0  0  0  0  0  0
    5.1005   -2.7197    0.9112 C   0  0  3  0  0  0  0  0  0  0  0  0
    4.6097   -3.8995    0.0427 C   0  0  0  0  0  0  0  0  0  0  0  0
    5.1082   -5.2868    0.4484 C   0  0  0  0  0  0  0  0  0  0  0  0
    4.6415   -5.8576    1.7920 C   0  0  0  0  0  0  0  0  0  0  0  0
    3.7837   -5.1855    2.4262 O   0  0  0  0  0  0  0  0  0  0  0  0
    5.1755   -6.9638    2.0956 O   0  5  0  0  0  0  0  0  0  0  0  0
    6.6298   -2.6585    0.9873 C   0  0  0  0  0  0  0  0  0  0  0  0
    0.7068    1.1827   -0.3888 H   0  0  0  0  0  0  0  0  0  0  0  0
    0.6223   -0.0099    0.9194 H   0  0  0  0  0  0  0  0  0  0  0  0
    0.6272   -0.5454   -0.7718 H   0  0  0  0  0  0  0  0  0  0  0  0
    2.9423    0.8723    0.6563 H   0  0  0  0  0  0  0  0  0  0  0  0
    2.9492    0.3767   -1.0388 H   0  0  0  0  0  0  0  0  0  0  0  0
    2.6358   -1.9948   -0.3568 H   0  0  0  0  0  0  0  0  0  0  0  0
    2.6375   -1.5263    1.3467 H   0  0  0  0  0  0  0  0  0  0  0  0
    4.9545   -0.5613    1.0340 H   0  0  0  0  0  0  0  0  0  0  0  0
    4.9648   -1.1723   -0.6153 H   0  0  0  0  0  0  0  0  0  0  0  0
    4.7268   -2.8477    1.9337 H   0  0  0  0  0  0  0  0  0  0  0  0
    4.9080   -3.7195   -0.9979 H   0  0  0  0  0  0  0  0  0  0  0  0
    3.5146   -3.9287    0.0502 H   0  0  0  0  0  0  0  0  0  0  0  0
    6.2025   -5.3251    0.4127 H   0  0  0  0  0  0  0  0  0  0  0  0
    4.7580   -5.9970   -0.3134 H   0  0  0  0  0  0  0  0  0  0  0  0
    7.0722   -2.5696   -0.0104 H   0  0  0  0  0  0  0  0  0  0  0  0
    7.0435   -3.5497    1.4690 H   0  0  0  0  0  0  0  0  0  0  0  0
    6.9560   -1.7968    1.5801 H   0  0  0  0  0  0  0  0  0  0  0  0
  1  2  1  0  0  0  0
  1 12  1  0  0  0  0
  1 13  1  0  0  0  0
  1 14  1  0  0  0  0
  2  3  1  0  0  0  0
  2 15  1  0  0  0  0
  2 16  1  0  0  0  0
  3  4  1  0  0  0  0
  3 17  1  0  0  0  0
  3 18  1  0  0  0  0
  4  5  1  0  0  0  0
  4 19  1  0  0  0  0
  4 20  1  0  0  0  0
  5  6  1  0  0  0  0
  5 11  1  0  0  0  0
  5 21  1  0  0  0  0
  6  7  1  0  0  0  0
  6 22  1  0  0  0  0
  6 23  1  0  0  0  0
  7  8  1  0  0  0  0
  7 24  1  0  0  0  0
  7 25  1  0  0  0  0
  8  9  2  0  0  0  0
  8 10  1  0  0  0  0
 11 26  1  0  0  0  0
 11 27  1  0  0  0  0
 11 28  1  0  0  0  0
M  CHG  1  10  -1
M  END
$$$$
