
 OpenBabel09022421433D

 19 18  0  0  0  0  0  0  0  0999 V2000
    0.9136   -0.0895    0.0458 C   0  0  0  0  0  0  0  0  0  0  0  0
    2.4425   -0.0545    0.0412 C   0  0  0  0  0  0  0  0  0  0  0  0
    2.9476    0.2934   -1.3617 C   0  0  0  0  0  0  0  0  0  0  0  0
    3.0124    0.9464    1.0662 C   0  0  0  0  0  0  0  0  0  0  0  0
    2.6429    0.6545    2.5196 C   0  0  0  0  0  0  0  0  0  0  0  0
    3.1314   -0.6873    3.0726 C   0  0  0  0  0  0  0  0  0  0  0  0
    4.2356   -1.1028    2.6248 O   0  0  0  0  0  0  0  0  0  0  0  0
    2.3672   -1.2064    3.9361 O   0  5  0  0  0  0  0  0  0  0  0  0
    0.5410   -0.7882   -0.7117 H   0  0  0  0  0  0  0  0  0  0  0  0
    0.4932    0.8987   -0.1707 H   0  0  0  0  0  0  0  0  0  0  0  0
    0.5234   -0.4241    1.0110 H   0  0  0  0  0  0  0  0  0  0  0  0
    2.8046   -1.0616    0.2806 H   0  0  0  0  0  0  0  0  0  0  0  0
    2.6396    1.3025   -1.6569 H   0  0  0  0  0  0  0  0  0  0  0  0
    2.5557   -0.4108   -2.1033 H   0  0  0  0  0  0  0  0  0  0  0  0
    4.0411    0.2465   -1.4033 H   0  0  0  0  0  0  0  0  0  0  0  0
    2.6636    1.9568    0.8177 H   0  0  0  0  0  0  0  0  0  0  0  0
    4.1061    0.9699    0.9725 H   0  0  0  0  0  0  0  0  0  0  0  0
    1.5587    0.7355    2.6564 H   0  0  0  0  0  0  0  0  0  0  0  0
    3.0880    1.4326    3.1535 H   0  0  0  0  0  0  0  0  0  0  0  0
  1  2  1  0  0  0  0
  1  9  1  0  0  0  0
  1 10  1  0  0  0  0
  1 11  1  0  0  0  0
  2  3  1  0  0  0  0
  2  4  1  0  0  0  0
  2 12  1  0  0  0  0
  3 13  1  0  0  0  0
  3 14  1  0  0  0  0
  3 15  1  0  0  0  0
  4  5  1  0  0  0  0
  4 16  1  0  0  0  0
  4 17  1  0  0  0  0
  5  6  1  0  0  0  0
  5 18  1  0  0  0  0
  5 19  1  0  0  0  0
  6  7  2  0  0  0  0
  6  8  1  0  0  0  0
M  CHG  1   8  -1
M  END
$$$$
