
 OpenBabel09042411093D

 21 21  0  0  0  0  0  0  0  0999 V2000
    2.3034   -0.2362    0.0275 O   0  0  0  0  0  0  0  0  0  0  0  0
    0.9430   -0.0904    0.0208 C   0  0  0  0  0  0  0  0  0  0  0  0
    0.1574   -1.2456    0.0098 C   0  0  0  0  0  0  0  0  0  0  0  0
   -1.2376   -1.1481   -0.0063 C   0  0  0  0  0  0  0  0  0  0  0  0
   -1.8674    0.1004   -0.0259 C   0  0  0  0  0  0  0  0  0  0  0  0
   -1.0648    1.2497    0.0036 C   0  0  0  0  0  0  0  0  0  0  0  0
    0.3392    1.1705    0.0237 C   0  0  0  0  0  0  0  0  0  0  0  0
    0.9399    2.4015    0.0428 O   0  0  0  0  0  0  0  0  0  0  0  0
    2.3589    2.4561    0.0542 C   0  0  0  0  0  0  0  0  0  0  0  0
   -3.3385    0.1481   -0.0259 C   0  0  0  0  0  0  0  0  0  0  0  0
   -4.0888    1.1120   -0.5730 C   0  0  0  0  0  0  0  0  0  0  0  0
    2.5244   -1.1808   -0.0042 H   0  0  0  0  0  0  0  0  0  0  0  0
    0.6096   -2.2328    0.0104 H   0  0  0  0  0  0  0  0  0  0  0  0
   -1.8266   -2.0630   -0.0169 H   0  0  0  0  0  0  0  0  0  0  0  0
   -1.5218    2.2362    0.0173 H   0  0  0  0  0  0  0  0  0  0  0  0
    2.6487    3.5114    0.0781 H   0  0  0  0  0  0  0  0  0  0  0  0
    2.7803    2.0266   -0.8603 H   0  0  0  0  0  0  0  0  0  0  0  0
    2.7686    1.9904    0.9563 H   0  0  0  0  0  0  0  0  0  0  0  0
   -3.8410   -0.6968    0.4411 H   0  0  0  0  0  0  0  0  0  0  0  0
   -3.6662    1.9741   -1.0790 H   0  0  0  0  0  0  0  0  0  0  0  0
   -5.1714    1.0441   -0.5401 H   0  0  0  0  0  0  0  0  0  0  0  0
  1  2  1  0  0  0  0
  1 12  1  0  0  0  0
  2  3  1  0  0  0  0
  2  7  2  0  0  0  0
  3  4  2  0  0  0  0
  3 13  1  0  0  0  0
  4  5  1  0  0  0  0
  4 14  1  0  0  0  0
  5  6  2  0  0  0  0
  5 10  1  0  0  0  0
  6  7  1  0  0  0  0
  6 15  1  0  0  0  0
  7  8  1  0  0  0  0
  8  9  1  0  0  0  0
  9 16  1  0  0  0  0
  9 17  1  0  0  0  0
  9 18  1  0  0  0  0
 10 11  2  0  0  0  0
 10 19  1  0  0  0  0
 11 20  1  0  0  0  0
 11 21  1  0  0  0  0
M  END
$$$$
