
 OpenBabel09022422133D

 19 20  0  0  1  0  0  0  0  0999 V2000
    2.9956   -1.0733   -0.4438 O   0  5  0  0  0  0  0  0  0  0  0  0
    2.3785   -0.0598   -0.0052 C   0  0  0  0  0  0  0  0  0  0  0  0
    1.3226    0.4761   -0.4408 O   0  0  0  0  0  0  0  0  0  0  0  0
    3.0313    0.6095    1.2105 C   0  0  3  0  0  0  0  0  0  0  0  0
    3.1324   -0.3840    2.4083 C   0  0  0  0  0  0  0  0  0  0  0  0
    2.3955    0.3668    3.5401 C   0  0  2  0  0  0  0  0  0  0  0  0
    1.2659    1.0413    2.7618 C   0  0  0  0  0  0  0  0  0  0  0  0
    2.2251    1.7776    1.8175 C   0  0  1  0  0  0  0  0  0  0  0  0
    3.1004    2.4450    2.8641 C   0  0  0  0  0  0  0  0  0  0  0  0
    3.2035    1.5952    3.8979 C   0  0  0  0  0  0  0  0  0  0  0  0
    4.0319    0.9397    0.9008 H   0  0  0  0  0  0  0  0  0  0  0  0
    4.1767   -0.5921    2.6680 H   0  0  0  0  0  0  0  0  0  0  0  0
    2.6340   -1.3370    2.1965 H   0  0  0  0  0  0  0  0  0  0  0  0
    2.0812   -0.2391    4.3905 H   0  0  0  0  0  0  0  0  0  0  0  0
    0.6555    1.7171    3.3746 H   0  0  0  0  0  0  0  0  0  0  0  0
    0.6048    0.3295    2.2557 H   0  0  0  0  0  0  0  0  0  0  0  0
    1.7436    2.4699    1.1257 H   0  0  0  0  0  0  0  0  0  0  0  0
    3.5957    3.3953    2.7472 H   0  0  0  0  0  0  0  0  0  0  0  0
    3.7989    1.7242    4.7860 H   0  0  0  0  0  0  0  0  0  0  0  0
  1  2  1  0  0  0  0
  2  3  2  0  0  0  0
  2  4  1  0  0  0  0
  4  5  1  0  0  0  0
  4  8  1  0  0  0  0
  4 11  1  0  0  0  0
  5  6  1  0  0  0  0
  5 12  1  0  0  0  0
  5 13  1  0  0  0  0
  6  7  1  0  0  0  0
  6 10  1  0  0  0  0
  6 14  1  1  0  0  0
  7  8  1  0  0  0  0
  7 15  1  0  0  0  0
  7 16  1  0  0  0  0
  8  9  1  0  0  0  0
  8 17  1  6  0  0  0
  9 10  2  0  0  0  0
  9 18  1  0  0  0  0
 10 19  1  0  0  0  0
M  CHG  1   1  -1
M  END
$$$$
