
 OpenBabel06202508463D

 33 33  0  0  0  0  0  0  0  0999 V2000
    1.1190    0.1113   -0.2138 C   0  0  0  0  0  0  0  0  0  0  0  0
    2.6204    0.0936   -0.1768 C   0  0  0  0  0  0  0  0  0  0  0  0
    3.2673   -0.3464    0.7644 O   0  0  0  0  0  0  0  0  0  0  0  0
    3.3104    0.6304   -1.3294 C   0  0  0  0  0  0  0  0  0  0  0  0
    3.9179    1.0635   -2.2680 C   0  0  0  0  0  0  0  0  0  0  0  0
    4.7112    1.6129   -3.4647 C   0  0  0  0  0  0  0  0  0  0  0  0
    5.2863    2.0607   -4.4182 C   0  0  0  0  0  0  0  0  0  0  0  0
    5.9015    2.6213   -5.5830 C   0  0  0  0  0  0  0  0  0  0  0  0
    5.8702    3.9989   -5.7857 C   0  0  0  0  0  0  0  0  0  0  0  0
    6.3621    4.5508   -6.9745 C   0  0  0  0  0  0  0  0  0  0  0  0
    6.8910    3.7435   -7.9972 C   0  0  0  0  0  0  0  0  0  0  0  0
    6.9703    2.3598   -7.7432 C   0  0  0  0  0  0  0  0  0  0  0  0
    6.4792    1.8043   -6.5521 C   0  0  0  0  0  0  0  0  0  0  0  0
    7.3241    4.3194   -9.3598 C   0  0  0  0  0  0  0  0  0  0  0  0
    7.0856    5.8424   -9.4825 C   0  0  0  0  0  0  0  0  0  0  0  0
    8.8250    4.0650   -9.6054 C   0  0  0  0  0  0  0  0  0  0  0  0
    6.5147    3.6471  -10.4920 C   0  0  0  0  0  0  0  0  0  0  0  0
    0.7304   -0.3211    0.7141 H   0  0  0  0  0  0  0  0  0  0  0  0
    0.7568   -0.4869   -1.0534 H   0  0  0  0  0  0  0  0  0  0  0  0
    0.7569    1.1373   -0.2971 H   0  0  0  0  0  0  0  0  0  0  0  0
    5.4389    4.6563   -5.0349 H   0  0  0  0  0  0  0  0  0  0  0  0
    6.2924    5.6297   -7.0822 H   0  0  0  0  0  0  0  0  0  0  0  0
    7.3931    1.6852   -8.4848 H   0  0  0  0  0  0  0  0  0  0  0  0
    6.5294    0.7279   -6.4046 H   0  0  0  0  0  0  0  0  0  0  0  0
    7.6762    6.4026   -8.7480 H   0  0  0  0  0  0  0  0  0  0  0  0
    6.0287    6.0961   -9.3359 H   0  0  0  0  0  0  0  0  0  0  0  0
    7.3698    6.2122  -10.4744 H   0  0  0  0  0  0  0  0  0  0  0  0
    9.4406    4.5399   -8.8331 H   0  0  0  0  0  0  0  0  0  0  0  0
    9.1364    4.4725  -10.5753 H   0  0  0  0  0  0  0  0  0  0  0  0
    9.0679    2.9970   -9.6136 H   0  0  0  0  0  0  0  0  0  0  0  0
    5.4372    3.7883  -10.3466 H   0  0  0  0  0  0  0  0  0  0  0  0
    6.7020    2.5695  -10.5531 H   0  0  0  0  0  0  0  0  0  0  0  0
    6.7762    4.0719  -11.4687 H   0  0  0  0  0  0  0  0  0  0  0  0
  1  2  1  0  0  0  0
  1 18  1  0  0  0  0
  1 19  1  0  0  0  0
  1 20  1  0  0  0  0
  2  3  2  0  0  0  0
  2  4  1  0  0  0  0
  4  5  3  0  0  0  0
  5  6  1  0  0  0  0
  6  7  3  0  0  0  0
  7  8  1  0  0  0  0
  8  9  1  0  0  0  0
  8 13  2  0  0  0  0
  9 10  2  0  0  0  0
  9 21  1  0  0  0  0
 10 11  1  0  0  0  0
 10 22  1  0  0  0  0
 11 12  2  0  0  0  0
 11 14  1  0  0  0  0
 12 13  1  0  0  0  0
 12 23  1  0  0  0  0
 13 24  1  0  0  0  0
 14 15  1  0  0  0  0
 14 16  1  0  0  0  0
 14 17  1  0  0  0  0
 15 25  1  0  0  0  0
 15 26  1  0  0  0  0
 15 27  1  0  0  0  0
 16 28  1  0  0  0  0
 16 29  1  0  0  0  0
 16 30  1  0  0  0  0
 17 31  1  0  0  0  0
 17 32  1  0  0  0  0
 17 33  1  0  0  0  0
M  END
$$$$
