
 OpenBabel06202508523D

 38 38  0  0  0  0  0  0  0  0999 V2000
    0.9415   -0.0092   -0.0573 O   0  0  0  0  0  0  0  0  0  0  0  0
    2.3648   -0.0304   -0.0777 C   0  0  0  0  0  0  0  0  0  0  0  0
    2.8485   -1.4332    0.2843 C   0  0  0  0  0  0  0  0  0  0  0  0
    2.8501    0.3771   -1.4674 C   0  0  0  0  0  0  0  0  0  0  0  0
    2.8715    0.9661    0.9523 C   0  0  0  0  0  0  0  0  0  0  0  0
    3.3061    1.8209    1.8357 C   0  0  0  0  0  0  0  0  0  0  0  0
    3.7885    2.8102    2.9138 C   0  0  0  0  0  0  0  0  0  0  0  0
    4.1525    3.6061    3.7464 C   0  0  0  0  0  0  0  0  0  0  0  0
    4.5765    4.6028    4.6828 C   0  0  0  0  0  0  0  0  0  0  0  0
    4.1114    5.9075    4.5562 C   0  0  0  0  0  0  0  0  0  0  0  0
    4.5598    6.9075    5.4243 C   0  0  0  0  0  0  0  0  0  0  0  0
    5.4935    6.6474    6.4489 C   0  0  0  0  0  0  0  0  0  0  0  0
    5.9230    5.3147    6.5862 C   0  0  0  0  0  0  0  0  0  0  0  0
    5.4709    4.3062    5.7133 C   0  0  0  0  0  0  0  0  0  0  0  0
    6.0257    7.7732    7.3612 C   0  0  0  0  0  0  0  0  0  0  0  0
    5.4403    9.1532    6.9807 C   0  0  0  0  0  0  0  0  0  0  0  0
    5.6692    7.5028    8.8387 C   0  0  0  0  0  0  0  0  0  0  0  0
    7.5627    7.8974    7.2587 C   0  0  0  0  0  0  0  0  0  0  0  0
    0.6291   -0.6506   -0.7167 H   0  0  0  0  0  0  0  0  0  0  0  0
    2.4762   -2.1735   -0.4325 H   0  0  0  0  0  0  0  0  0  0  0  0
    2.4733   -1.7353    1.2693 H   0  0  0  0  0  0  0  0  0  0  0  0
    3.9426   -1.4915    0.3056 H   0  0  0  0  0  0  0  0  0  0  0  0
    2.4786   -0.3153   -2.2313 H   0  0  0  0  0  0  0  0  0  0  0  0
    3.9441    0.4004   -1.5239 H   0  0  0  0  0  0  0  0  0  0  0  0
    2.4750    1.3713   -1.7377 H   0  0  0  0  0  0  0  0  0  0  0  0
    3.4009    6.1705    3.7748 H   0  0  0  0  0  0  0  0  0  0  0  0
    4.1575    7.9033    5.2614 H   0  0  0  0  0  0  0  0  0  0  0  0
    6.6248    5.0384    7.3702 H   0  0  0  0  0  0  0  0  0  0  0  0
    5.8336    3.2881    5.8397 H   0  0  0  0  0  0  0  0  0  0  0  0
    4.3498    9.1690    7.0975 H   0  0  0  0  0  0  0  0  0  0  0  0
    5.6755    9.4077    5.9391 H   0  0  0  0  0  0  0  0  0  0  0  0
    5.8442    9.9567    7.6050 H   0  0  0  0  0  0  0  0  0  0  0  0
    4.5854    7.4572    8.9879 H   0  0  0  0  0  0  0  0  0  0  0  0
    6.0593    8.2991    9.4853 H   0  0  0  0  0  0  0  0  0  0  0  0
    6.0963    6.5606    9.2002 H   0  0  0  0  0  0  0  0  0  0  0  0
    7.8805    8.1111    6.2319 H   0  0  0  0  0  0  0  0  0  0  0  0
    8.0773    6.9882    7.5878 H   0  0  0  0  0  0  0  0  0  0  0  0
    7.9278    8.7169    7.8919 H   0  0  0  0  0  0  0  0  0  0  0  0
  1  2  1  0  0  0  0
  1 19  1  0  0  0  0
  2  3  1  0  0  0  0
  2  4  1  0  0  0  0
  2  5  1  0  0  0  0
  3 20  1  0  0  0  0
  3 21  1  0  0  0  0
  3 22  1  0  0  0  0
  4 23  1  0  0  0  0
  4 24  1  0  0  0  0
  4 25  1  0  0  0  0
  5  6  3  0  0  0  0
  6  7  1  0  0  0  0
  7  8  3  0  0  0  0
  8  9  1  0  0  0  0
  9 10  1  0  0  0  0
  9 14  2  0  0  0  0
 10 11  2  0  0  0  0
 10 26  1  0  0  0  0
 11 12  1  0  0  0  0
 11 27  1  0  0  0  0
 12 13  2  0  0  0  0
 12 15  1  0  0  0  0
 13 14  1  0  0  0  0
 13 28  1  0  0  0  0
 14 29  1  0  0  0  0
 15 16  1  0  0  0  0
 15 17  1  0  0  0  0
 15 18  1  0  0  0  0
 16 30  1  0  0  0  0
 16 31  1  0  0  0  0
 16 32  1  0  0  0  0
 17 33  1  0  0  0  0
 17 34  1  0  0  0  0
 17 35  1  0  0  0  0
 18 36  1  0  0  0  0
 18 37  1  0  0  0  0
 18 38  1  0  0  0  0
M  END
$$$$
