
 OpenBabel08282418213D

 20 21  0  0  0  0  0  0  0  0999 V2000
    3.6044   -0.6923   -0.0283 C   0  0  0  0  0  0  0  0  0  0  0  0
    2.1850   -0.2112    0.0014 C   0  0  0  0  0  0  0  0  0  0  0  0
    1.1147   -1.1122    0.0082 C   0  0  0  0  0  0  0  0  0  0  0  0
   -0.2145   -0.6497    0.0138 C   0  0  0  0  0  0  0  0  0  0  0  0
   -0.4873    0.7345    0.0105 C   0  0  0  0  0  0  0  0  0  0  0  0
    0.5865    1.6122    0.0209 C   0  0  0  0  0  0  0  0  0  0  0  0
    1.9098    1.1574    0.0185 C   0  0  0  0  0  0  0  0  0  0  0  0
   -1.7421    1.2212   -0.0040 N   0  0  0  0  0  0  0  0  0  0  0  0
   -2.7640    0.3374   -0.0126 C   0  0  0  0  0  0  0  0  0  0  0  0
   -2.5984   -1.0343    0.0031 C   0  0  0  0  0  0  0  0  0  0  0  0
   -1.3019   -1.5334    0.0178 C   0  0  0  0  0  0  0  0  0  0  0  0
    3.6582   -1.7856   -0.0537 H   0  0  0  0  0  0  0  0  0  0  0  0
    4.1400   -0.3490    0.8624 H   0  0  0  0  0  0  0  0  0  0  0  0
    4.1102   -0.3124   -0.9220 H   0  0  0  0  0  0  0  0  0  0  0  0
    1.3130   -2.1818    0.0013 H   0  0  0  0  0  0  0  0  0  0  0  0
    0.3884    2.6812    0.0275 H   0  0  0  0  0  0  0  0  0  0  0  0
    2.7202    1.8830    0.0235 H   0  0  0  0  0  0  0  0  0  0  0  0
   -3.7554    0.7810   -0.0336 H   0  0  0  0  0  0  0  0  0  0  0  0
   -3.4558   -1.6973    0.0018 H   0  0  0  0  0  0  0  0  0  0  0  0
   -1.1435   -2.6083    0.0302 H   0  0  0  0  0  0  0  0  0  0  0  0
  1  2  1  0  0  0  0
  1 12  1  0  0  0  0
  1 13  1  0  0  0  0
  1 14  1  0  0  0  0
  2  3  2  0  0  0  0
  2  7  1  0  0  0  0
  3  4  1  0  0  0  0
  3 15  1  0  0  0  0
  4  5  2  0  0  0  0
  4 11  1  0  0  0  0
  5  6  1  0  0  0  0
  5  8  1  0  0  0  0
  6  7  2  0  0  0  0
  6 16  1  0  0  0  0
  7 17  1  0  0  0  0
  8  9  2  0  0  0  0
  9 10  1  0  0  0  0
  9 18  1  0  0  0  0
 10 11  2  0  0  0  0
 10 19  1  0  0  0  0
 11 20  1  0  0  0  0
M  END
$$$$
