
 OpenBabel10312415523D

 23 22  0  0  0  0  0  0  0  0999 V2000
    0.9329    1.5754    0.0616 C   0  0  0  0  0  0  0  0  0  0  0  0
    2.4333    1.6767    0.0447 C   0  0  0  0  0  0  0  0  0  0  0  0
    3.0422    2.7194   -0.8507 C   0  0  0  0  0  0  0  0  0  0  0  0
    3.1757    0.8575    0.8182 C   0  0  0  0  0  0  0  0  0  0  0  0
    4.6791    0.8154    0.8600 C   0  0  0  0  0  0  0  0  0  0  0  0
    5.2438    1.7144    1.9551 C   0  0  0  0  0  0  0  0  0  0  0  0
    6.7601    1.7173    1.9526 C   0  0  0  0  0  0  0  0  0  0  0  0
    7.4271    1.0348    1.1756 O   0  0  0  0  0  0  0  0  0  0  0  0
    7.4384    2.6072    2.9607 C   0  0  0  0  0  0  0  0  0  0  0  0
    0.4660    2.3210   -0.5894 H   0  0  0  0  0  0  0  0  0  0  0  0
    0.5460    1.7356    1.0722 H   0  0  0  0  0  0  0  0  0  0  0  0
    0.6126    0.5887   -0.2902 H   0  0  0  0  0  0  0  0  0  0  0  0
    2.2793    3.3105   -1.3648 H   0  0  0  0  0  0  0  0  0  0  0  0
    3.6667    2.2554   -1.6196 H   0  0  0  0  0  0  0  0  0  0  0  0
    3.6517    3.4192   -0.2675 H   0  0  0  0  0  0  0  0  0  0  0  0
    2.6702    0.1334    1.4544 H   0  0  0  0  0  0  0  0  0  0  0  0
    5.1003    1.0917   -0.1134 H   0  0  0  0  0  0  0  0  0  0  0  0
    4.9910   -0.2226    1.0299 H   0  0  0  0  0  0  0  0  0  0  0  0
    4.9032    1.3767    2.9400 H   0  0  0  0  0  0  0  0  0  0  0  0
    4.9099    2.7482    1.8069 H   0  0  0  0  0  0  0  0  0  0  0  0
    6.6981    3.1319    3.5705 H   0  0  0  0  0  0  0  0  0  0  0  0
    8.0480    3.3466    2.4357 H   0  0  0  0  0  0  0  0  0  0  0  0
    8.0629    1.9957    3.6165 H   0  0  0  0  0  0  0  0  0  0  0  0
  1  2  1  0  0  0  0
  1 10  1  0  0  0  0
  1 11  1  0  0  0  0
  1 12  1  0  0  0  0
  2  3  1  0  0  0  0
  2  4  2  0  0  0  0
  3 13  1  0  0  0  0
  3 14  1  0  0  0  0
  3 15  1  0  0  0  0
  4  5  1  0  0  0  0
  4 16  1  0  0  0  0
  5  6  1  0  0  0  0
  5 17  1  0  0  0  0
  5 18  1  0  0  0  0
  6  7  1  0  0  0  0
  6 19  1  0  0  0  0
  6 20  1  0  0  0  0
  7  8  2  0  0  0  0
  7  9  1  0  0  0  0
  9 21  1  0  0  0  0
  9 22  1  0  0  0  0
  9 23  1  0  0  0  0
M  END
$$$$
