
 OpenBabel09262514153D

 44 45  0  0  1  0  0  0  0  0999 V2000
    2.1254   -0.0545   -1.6842 C   0  0  0  0  0  0  0  0  0  0  0  0
    2.5285    0.0085   -0.1895 C   0  0  1  0  0  0  0  0  0  0  0  0
    3.0601   -1.3848    0.2851 C   0  0  2  0  0  0  0  0  0  0  0  0
    3.9670   -2.1274   -0.7075 C   0  0  0  0  0  0  0  0  0  0  0  0
    1.9164   -2.2418    0.4813 O   0  0  0  0  0  0  0  0  0  0  0  0
    3.7462   -1.3045    1.6474 C   0  0  0  0  0  0  0  0  0  0  0  0
    4.8314   -0.2360    1.6887 C   0  0  0  0  0  0  0  0  0  0  0  0
    4.1902    1.1465    1.5291 C   0  0  2  0  0  0  0  0  0  0  0  0
    3.4166    1.2936    0.1645 C   0  0  1  0  0  0  0  0  0  0  0  0
    4.3367    1.6332   -1.0309 C   0  0  0  0  0  0  0  0  0  0  0  0
    2.4673    2.5078    0.4048 C   0  0  0  0  0  0  0  0  0  0  0  0
    3.2038    3.8004    0.7715 C   0  0  0  0  0  0  0  0  0  0  0  0
    4.2696    3.6701    1.8670 C   0  0  0  0  0  0  0  0  0  0  0  0
    5.1174    2.3642    1.9073 C   0  0  0  0  0  0  0  0  0  0  0  0
    6.4083    2.4907    1.0648 C   0  0  0  0  0  0  0  0  0  0  0  0
    5.6343    2.2246    3.3680 C   0  0  0  0  0  0  0  0  0  0  0  0
    1.4162   -0.8608   -1.8810 H   0  0  0  0  0  0  0  0  0  0  0  0
    2.9952   -0.2393   -2.3420 H   0  0  0  0  0  0  0  0  0  0  0  0
    1.6554    0.8763   -2.0108 H   0  0  0  0  0  0  0  0  0  0  0  0
    1.5771    0.1485    0.3432 H   0  0  0  0  0  0  0  0  0  0  0  0
    3.4335   -2.3863   -1.6287 H   0  0  0  0  0  0  0  0  0  0  0  0
    4.2784   -3.0920   -0.2857 H   0  0  0  0  0  0  0  0  0  0  0  0
    4.8624   -1.5585   -0.9644 H   0  0  0  0  0  0  0  0  0  0  0  0
    1.4656   -2.3544   -0.3721 H   0  0  0  0  0  0  0  0  0  0  0  0
    4.1751   -2.2786    1.9151 H   0  0  0  0  0  0  0  0  0  0  0  0
    2.9972   -1.1095    2.4286 H   0  0  0  0  0  0  0  0  0  0  0  0
    5.5913   -0.4167    0.9249 H   0  0  0  0  0  0  0  0  0  0  0  0
    5.3297   -0.3227    2.6582 H   0  0  0  0  0  0  0  0  0  0  0  0
    3.4091    1.1617    2.3093 H   0  0  0  0  0  0  0  0  0  0  0  0
    5.1286    0.8921   -1.1551 H   0  0  0  0  0  0  0  0  0  0  0  0
    4.7893    2.6184   -0.9573 H   0  0  0  0  0  0  0  0  0  0  0  0
    3.7872    1.7155   -1.9721 H   0  0  0  0  0  0  0  0  0  0  0  0
    1.7659    2.2689    1.2248 H   0  0  0  0  0  0  0  0  0  0  0  0
    1.8391    2.6899   -0.4739 H   0  0  0  0  0  0  0  0  0  0  0  0
    2.4587    4.5367    1.1033 H   0  0  0  0  0  0  0  0  0  0  0  0
    3.6520    4.2330   -0.1277 H   0  0  0  0  0  0  0  0  0  0  0  0
    3.7391    3.7666    2.8248 H   0  0  0  0  0  0  0  0  0  0  0  0
    4.9323    4.5445    1.8148 H   0  0  0  0  0  0  0  0  0  0  0  0
    6.2790    3.0270    0.1257 H   0  0  0  0  0  0  0  0  0  0  0  0
    6.8522    1.5131    0.8500 H   0  0  0  0  0  0  0  0  0  0  0  0
    7.1743    3.0712    1.5959 H   0  0  0  0  0  0  0  0  0  0  0  0
    4.8142    2.0771    4.0767 H   0  0  0  0  0  0  0  0  0  0  0  0
    6.1747    3.1301    3.6748 H   0  0  0  0  0  0  0  0  0  0  0  0
    6.3359    1.3911    3.4779 H   0  0  0  0  0  0  0  0  0  0  0  0
  1 17  1  0  0  0  0
  1 18  1  0  0  0  0
  1 19  1  0  0  0  0
  2  3  1  0  0  0  0
  2  9  1  0  0  0  0
  2  1  1  0  0  0  0
  2 20  1  1  0  0  0
  3  4  1  0  0  0  0
  3  5  1  1  0  0  0
  3  6  1  0  0  0  0
  4 21  1  0  0  0  0
  4 22  1  0  0  0  0
  4 23  1  0  0  0  0
  5 24  1  0  0  0  0
  6  7  1  0  0  0  0
  6 25  1  0  0  0  0
  6 26  1  0  0  0  0
  7  8  1  0  0  0  0
  7 27  1  0  0  0  0
  7 28  1  0  0  0  0
  8  9  1  0  0  0  0
  8 14  1  0  0  0  0
  8 29  1  1  0  0  0
  9 10  1  6  0  0  0
  9 11  1  0  0  0  0
 10 30  1  0  0  0  0
 10 31  1  0  0  0  0
 10 32  1  0  0  0  0
 11 12  1  0  0  0  0
 11 33  1  0  0  0  0
 11 34  1  0  0  0  0
 12 13  1  0  0  0  0
 12 35  1  0  0  0  0
 12 36  1  0  0  0  0
 13 14  1  0  0  0  0
 13 37  1  0  0  0  0
 13 38  1  0  0  0  0
 14 15  1  0  0  0  0
 14 16  1  0  0  0  0
 15 39  1  0  0  0  0
 15 40  1  0  0  0  0
 15 41  1  0  0  0  0
 16 42  1  0  0  0  0
 16 43  1  0  0  0  0
 16 44  1  0  0  0  0
M  END
$$$$
