
 OpenBabel01032514373D

 31 30  0  0  0  0  0  0  0  0999 V2000
    1.4678    0.5559   -0.9703 C   0  0  0  0  0  0  0  0  0  0  0  0
    2.3232    0.0554   -0.0773 C   0  0  0  0  0  0  0  0  0  0  0  0
    3.1056   -1.2006   -0.3210 C   0  0  0  0  0  0  0  0  0  0  0  0
    4.6077   -0.9423   -0.2722 C   0  0  0  0  0  0  0  0  0  0  0  0
    5.3800   -2.2331   -0.5251 C   0  0  0  0  0  0  0  0  0  0  0  0
    6.8807   -1.9773   -0.4750 C   0  0  0  0  0  0  0  0  0  0  0  0
    7.6535   -3.2660   -0.7270 C   0  0  0  0  0  0  0  0  0  0  0  0
    9.1539   -3.0063   -0.6760 C   0  0  0  0  0  0  0  0  0  0  0  0
    9.9356   -4.2887   -0.9267 C   0  0  0  0  0  0  0  0  0  0  0  0
   11.4328   -4.0297   -0.8759 C   0  0  0  0  0  0  0  0  0  0  0  0
   12.1380   -5.2389   -1.1123 O   0  0  0  0  0  0  0  0  0  0  0  0
    0.9150    1.4650   -0.7686 H   0  0  0  0  0  0  0  0  0  0  0  0
    1.2992    0.0682   -1.9285 H   0  0  0  0  0  0  0  0  0  0  0  0
    2.4651    0.5696    0.8725 H   0  0  0  0  0  0  0  0  0  0  0  0
    2.8426   -1.6195   -1.2998 H   0  0  0  0  0  0  0  0  0  0  0  0
    2.8350   -1.9475    0.4340 H   0  0  0  0  0  0  0  0  0  0  0  0
    4.8870   -0.5333    0.7066 H   0  0  0  0  0  0  0  0  0  0  0  0
    4.8847   -0.1948   -1.0264 H   0  0  0  0  0  0  0  0  0  0  0  0
    5.1077   -2.6446   -1.5052 H   0  0  0  0  0  0  0  0  0  0  0  0
    5.1078   -2.9837    0.2275 H   0  0  0  0  0  0  0  0  0  0  0  0
    7.1539   -1.5666    0.5047 H   0  0  0  0  0  0  0  0  0  0  0  0
    7.1541   -1.2279   -1.2279 H   0  0  0  0  0  0  0  0  0  0  0  0
    7.3802   -3.6759   -1.7069 H   0  0  0  0  0  0  0  0  0  0  0  0
    7.3798   -4.0152    0.0259 H   0  0  0  0  0  0  0  0  0  0  0  0
    9.4229   -2.5940    0.3042 H   0  0  0  0  0  0  0  0  0  0  0  0
    9.4234   -2.2546   -1.4281 H   0  0  0  0  0  0  0  0  0  0  0  0
    9.6687   -4.7143   -1.9022 H   0  0  0  0  0  0  0  0  0  0  0  0
    9.6659   -5.0491   -0.1831 H   0  0  0  0  0  0  0  0  0  0  0  0
   11.7329   -3.6346    0.1001 H   0  0  0  0  0  0  0  0  0  0  0  0
   11.7269   -3.3072   -1.6437 H   0  0  0  0  0  0  0  0  0  0  0  0
   11.8731   -5.8698   -0.4215 H   0  0  0  0  0  0  0  0  0  0  0  0
  1  2  2  0  0  0  0
  1 12  1  0  0  0  0
  1 13  1  0  0  0  0
  2  3  1  0  0  0  0
  2 14  1  0  0  0  0
  3  4  1  0  0  0  0
  3 15  1  0  0  0  0
  3 16  1  0  0  0  0
  4  5  1  0  0  0  0
  4 17  1  0  0  0  0
  4 18  1  0  0  0  0
  5  6  1  0  0  0  0
  5 19  1  0  0  0  0
  5 20  1  0  0  0  0
  6  7  1  0  0  0  0
  6 21  1  0  0  0  0
  6 22  1  0  0  0  0
  7  8  1  0  0  0  0
  7 23  1  0  0  0  0
  7 24  1  0  0  0  0
  8  9  1  0  0  0  0
  8 25  1  0  0  0  0
  8 26  1  0  0  0  0
  9 10  1  0  0  0  0
  9 27  1  0  0  0  0
  9 28  1  0  0  0  0
 10 11  1  0  0  0  0
 10 29  1  0  0  0  0
 10 30  1  0  0  0  0
 11 31  1  0  0  0  0
M  END
$$$$
