
 OpenBabel10132518303D

 45 47  0  0  1  0  0  0  0  0999 V2000
    1.2018   -0.9391   -3.0846 C   0  0  0  0  0  0  0  0  0  0  0  0
    2.6454   -0.6051   -2.8268 C   0  0  0  0  0  0  0  0  0  0  0  0
    3.5163   -1.4458   -2.6463 O   0  0  0  0  0  0  0  0  0  0  0  0
    2.8533    0.7222   -2.9344 O   0  0  0  0  0  0  0  0  0  0  0  0
    4.2291    1.0764   -3.1795 C   0  0  0  0  0  0  0  0  0  0  0  0
    4.9985    1.5289   -1.9098 C   0  0  1  0  0  0  0  0  0  0  0  0
    6.4414    2.0489   -2.1713 C   0  0  2  0  0  0  0  0  0  0  0  0
    6.7417    1.9543   -3.7617 C   0  0  0  0  0  0  0  0  0  0  0  0
    8.2454    1.9866   -4.0217 C   0  0  0  0  0  0  0  0  0  0  0  0
    8.6720    2.4748   -2.6882 C   0  0  3  0  0  0  0  0  0  0  0  0
    7.7962    1.4639   -1.7913 C   0  0  0  0  0  0  0  0  0  0  0  0
    8.3150    4.0638   -2.6177 C   0  0  0  0  0  0  0  0  0  0  0  0
    9.5618    4.8029   -3.1405 C   0  0  0  0  0  0  0  0  0  0  0  0
    7.1722    4.8215   -3.3985 C   0  0  0  0  0  0  0  0  0  0  0  0
    7.8033    4.1223   -1.2135 C   0  0  0  0  0  0  0  0  0  0  0  0
    8.5341    4.6103   -0.1975 C   0  0  0  0  0  0  0  0  0  0  0  0
    6.5261    3.2642   -1.0989 C   0  0  3  0  0  0  0  0  0  0  0  0
    5.1517    3.8926   -1.0382 C   0  0  0  0  0  0  0  0  0  0  0  0
    4.2004    2.7323   -1.3155 C   0  0  0  0  0  0  0  0  0  0  0  0
    0.8978   -1.7294   -2.3839 H   0  0  0  0  0  0  0  0  0  0  0  0
    1.1095   -1.2872   -4.1159 H   0  0  0  0  0  0  0  0  0  0  0  0
    0.5793   -0.0707   -2.9282 H   0  0  0  0  0  0  0  0  0  0  0  0
    4.1754    1.9052   -3.9004 H   0  0  0  0  0  0  0  0  0  0  0  0
    4.7299    0.2516   -3.6922 H   0  0  0  0  0  0  0  0  0  0  0  0
    5.0092    0.7134   -1.1787 H   0  0  0  0  0  0  0  0  0  0  0  0
    6.2005    2.6585   -4.3913 H   0  0  0  0  0  0  0  0  0  0  0  0
    6.4714    0.9612   -4.1346 H   0  0  0  0  0  0  0  0  0  0  0  0
    8.5502    2.6058   -4.8655 H   0  0  0  0  0  0  0  0  0  0  0  0
    8.6420    0.9730   -4.1909 H   0  0  0  0  0  0  0  0  0  0  0  0
    9.7316    2.3002   -2.4668 H   0  0  0  0  0  0  0  0  0  0  0  0
    8.0759    1.5046   -0.7301 H   0  0  0  0  0  0  0  0  0  0  0  0
    7.9141    0.4143   -2.0884 H   0  0  0  0  0  0  0  0  0  0  0  0
    9.5135    5.8837   -2.9585 H   0  0  0  0  0  0  0  0  0  0  0  0
    9.6178    4.6761   -4.2344 H   0  0  0  0  0  0  0  0  0  0  0  0
   10.5037    4.4155   -2.7401 H   0  0  0  0  0  0  0  0  0  0  0  0
    7.4408    5.1196   -4.4090 H   0  0  0  0  0  0  0  0  0  0  0  0
    6.9234    5.7563   -2.8625 H   0  0  0  0  0  0  0  0  0  0  0  0
    6.2065    4.3180   -3.4700 H   0  0  0  0  0  0  0  0  0  0  0  0
    9.5010    5.0718   -0.3811 H   0  0  0  0  0  0  0  0  0  0  0  0
    8.2377    4.4926    0.8372 H   0  0  0  0  0  0  0  0  0  0  0  0
    6.6061    2.7901   -0.1014 H   0  0  0  0  0  0  0  0  0  0  0  0
    5.0022    4.7056   -1.7518 H   0  0  0  0  0  0  0  0  0  0  0  0
    4.9518    4.3144   -0.0440 H   0  0  0  0  0  0  0  0  0  0  0  0
    3.4126    3.0906   -1.9898 H   0  0  0  0  0  0  0  0  0  0  0  0
    3.6950    2.4136   -0.3971 H   0  0  0  0  0  0  0  0  0  0  0  0
  1  2  1  0  0  0  0
  1 20  1  0  0  0  0
  1 21  1  0  0  0  0
  1 22  1  0  0  0  0
  2  3  2  0  0  0  0
  2  4  1  0  0  0  0
  4  5  1  0  0  0  0
  5 23  1  0  0  0  0
  5 24  1  0  0  0  0
  6  7  1  0  0  0  0
  6 19  1  0  0  0  0
  6  5  1  0  0  0  0
  6 25  1  1  0  0  0
  7  8  1  6  0  0  0
  7 11  1  0  0  0  0
  7 17  1  0  0  0  0
  8  9  1  0  0  0  0
  8 26  1  0  0  0  0
  8 27  1  0  0  0  0
  9 10  1  0  0  0  0
  9 28  1  0  0  0  0
  9 29  1  0  0  0  0
 10 11  1  0  0  0  0
 10 12  1  0  0  0  0
 10 30  1  0  0  0  0
 11 31  1  0  0  0  0
 11 32  1  0  0  0  0
 12 13  1  0  0  0  0
 12 14  1  0  0  0  0
 12 15  1  0  0  0  0
 13 33  1  0  0  0  0
 13 34  1  0  0  0  0
 13 35  1  0  0  0  0
 14 36  1  0  0  0  0
 14 37  1  0  0  0  0
 14 38  1  0  0  0  0
 15 16  2  0  0  0  0
 15 17  1  0  0  0  0
 16 39  1  0  0  0  0
 16 40  1  0  0  0  0
 17 18  1  0  0  0  0
 17 41  1  0  0  0  0
 18 19  1  0  0  0  0
 18 42  1  0  0  0  0
 18 43  1  0  0  0  0
 19 44  1  0  0  0  0
 19 45  1  0  0  0  0
M  END
$$$$
