
 OpenBabel09042422583D

  8  7  0  0  0  0  0  0  0  0999 V2000
    1.0812   -0.0397    0.0685 C   0  0  0  0  0  0  0  0  0  0  0  0
    2.4186   -0.0480    0.0648 C   0  0  0  0  0  0  0  0  0  0  0  0
    3.1873    1.1064    0.5705 C   0  0  0  0  0  0  0  0  0  0  0  0
    4.4118    1.1047    0.5683 O   0  0  0  0  0  0  0  0  0  0  0  0
    0.5295   -0.8967   -0.3070 H   0  0  0  0  0  0  0  0  0  0  0  0
    0.5018    0.8010    0.4368 H   0  0  0  0  0  0  0  0  0  0  0  0
    2.9951   -0.8883   -0.3037 H   0  0  0  0  0  0  0  0  0  0  0  0
    2.6001    1.9606    0.9460 H   0  0  0  0  0  0  0  0  0  0  0  0
  1  2  2  0  0  0  0
  1  5  1  0  0  0  0
  1  6  1  0  0  0  0
  2  3  1  0  0  0  0
  2  7  1  0  0  0  0
  3  4  2  0  0  0  0
  3  8  1  0  0  0  0
M  END
$$$$
