
 OpenBabel08282421293D

 42 44  0  0  1  0  0  0  0  0999 V2000
   -1.9900    0.6538   -0.0409 C   0  0  0  0  0  0  0  0  0  0  0  0
   -0.8875    1.4327   -0.0197 N   0  0  0  0  0  0  0  0  0  0  0  0
    0.2250    0.6870    0.0838 C   0  0  0  0  0  0  0  0  0  0  0  0
    0.2968   -0.6948    0.1673 C   0  0  0  0  0  0  0  0  0  0  0  0
   -0.9188   -1.3969    0.1382 C   0  0  0  0  0  0  0  0  0  0  0  0
   -2.0682   -0.6943    0.0221 N   0  0  0  0  0  0  0  0  0  0  0  0
   -0.9853   -2.7854    0.1882 N   0  0  0  0  0  0  0  0  0  0  0  0
    1.6064   -1.1207    0.2367 N   0  0  0  0  0  0  0  0  0  0  0  0
    2.3167   -0.0147    0.1924 C   0  0  0  0  0  0  0  0  0  0  0  0
    1.5273    1.1043    0.0960 N   0  0  0  0  0  0  0  0  0  0  0  0
    2.0303    2.4522   -0.0523 C   0  0  1  0  0  0  0  0  0  0  0  0
    1.5257    3.2057   -1.2795 C   0  0  1  0  0  0  0  0  0  0  0  0
    1.6738    4.6454   -0.8065 C   0  0  1  0  0  0  0  0  0  0  0  0
    1.3345    4.5731    0.7024 C   0  0  2  0  0  0  0  0  0  0  0  0
    1.6986    3.2335    1.1200 O   0  0  0  0  0  0  0  0  0  0  0  0
   -0.1690    4.8478    0.9483 C   0  0  0  0  0  0  0  0  0  0  0  0
   -0.6312    4.8942    2.3111 O   0  0  0  0  0  0  0  0  0  0  0  0
   -2.2512    5.0199    2.4211 P   0  0  3  0  0  0  0  0  0  0  0  0
   -2.8536    5.9375    1.4103 O   0  0  0  0  0  0  0  0  0  0  0  0
   -2.6972    3.4839    2.2423 O   0  0  0  0  0  0  0  0  0  0  0  0
   -2.6288    5.3145    3.9353 O   0  0  0  0  0  0  0  0  0  0  0  0
   -3.9739    4.8768    4.6807 P   0  0  0  0  0  0  0  0  0  0  0  0
   -5.2842    5.3907    4.2127 O   0  0  0  0  0  0  0  0  0  0  0  0
   -3.9217    3.2768    4.7287 O   0  0  0  0  0  0  0  0  0  0  0  0
   -3.7259    5.2206    6.2258 O   0  0  0  0  0  0  0  0  0  0  0  0
    3.0358    5.0419   -1.0629 O   0  0  0  0  0  0  0  0  0  0  0  0
    2.3082    2.9327   -2.4447 O   0  0  0  0  0  0  0  0  0  0  0  0
   -2.9391    1.1774   -0.1230 H   0  0  0  0  0  0  0  0  0  0  0  0
   -0.1138   -3.2256   -0.0852 H   0  0  0  0  0  0  0  0  0  0  0  0
   -1.8352   -3.1372   -0.2332 H   0  0  0  0  0  0  0  0  0  0  0  0
    3.3983    0.0325    0.2136 H   0  0  0  0  0  0  0  0  0  0  0  0
    3.1256    2.3754   -0.0950 H   0  0  0  0  0  0  0  0  0  0  0  0
    0.4807    2.9894   -1.5148 H   0  0  0  0  0  0  0  0  0  0  0  0
    1.0403    5.3352   -1.3719 H   0  0  0  0  0  0  0  0  0  0  0  0
    1.9510    5.2703    1.2818 H   0  0  0  0  0  0  0  0  0  0  0  0
   -0.7575    4.0844    0.4365 H   0  0  0  0  0  0  0  0  0  0  0  0
   -0.3952    5.8278    0.5160 H   0  0  0  0  0  0  0  0  0  0  0  0
   -2.3910    2.9313    2.9835 H   0  0  0  0  0  0  0  0  0  0  0  0
   -4.8231    2.9017    4.7824 H   0  0  0  0  0  0  0  0  0  0  0  0
   -4.5464    5.4630    6.6709 H   0  0  0  0  0  0  0  0  0  0  0  0
    3.5720    4.9106   -0.2600 H   0  0  0  0  0  0  0  0  0  0  0  0
    2.9599    3.6609   -2.5201 H   0  0  0  0  0  0  0  0  0  0  0  0
  1  2  2  0  0  0  0
  1  6  1  0  0  0  0
  1 28  1  0  0  0  0
  2  3  1  0  0  0  0
  3  4  2  0  0  0  0
  3 10  1  0  0  0  0
  4  5  1  0  0  0  0
  4  8  1  0  0  0  0
  5  6  2  0  0  0  0
  5  7  1  0  0  0  0
  7 29  1  0  0  0  0
  7 30  1  0  0  0  0
  8  9  2  0  0  0  0
  9 10  1  0  0  0  0
  9 31  1  0  0  0  0
 10 11  1  0  0  0  0
 11 12  1  0  0  0  0
 11 15  1  0  0  0  0
 11 32  1  6  0  0  0
 12 13  1  0  0  0  0
 12 27  1  0  0  0  0
 12 33  1  6  0  0  0
 13 14  1  0  0  0  0
 13 26  1  0  0  0  0
 13 34  1  6  0  0  0
 14 15  1  0  0  0  0
 14 16  1  0  0  0  0
 14 35  1  1  0  0  0
 16 17  1  0  0  0  0
 16 36  1  0  0  0  0
 16 37  1  0  0  0  0
 17 18  1  0  0  0  0
 18 19  2  0  0  0  0
 18 20  1  0  0  0  0
 18 21  1  0  0  0  0
 20 38  1  0  0  0  0
 21 22  1  0  0  0  0
 22 23  2  0  0  0  0
 22 24  1  0  0  0  0
 22 25  1  0  0  0  0
 24 39  1  0  0  0  0
 25 40  1  0  0  0  0
 26 41  1  0  0  0  0
 27 42  1  0  0  0  0
M  END
$$$$
