
 OpenBabel09302520103D

 40 42  0  0  1  0  0  0  0  0999 V2000
    0.9201   -0.0634    0.9642 C   0  0  0  0  0  0  0  0  0  0  0  0
    2.4276   -0.0390    0.9531 C   0  0  0  0  0  0  0  0  0  0  0  0
    3.1073    1.0852    0.6462 C   0  0  0  0  0  0  0  0  0  0  0  0
    4.6088    1.1440    0.5837 C   0  0  0  0  0  0  0  0  0  0  0  0
    5.2240    2.5048    0.2174 C   0  0  0  0  0  0  0  0  0  0  0  0
    6.7779    2.4322    0.2008 C   0  0  2  0  0  0  0  0  0  0  0  0
    7.4020    2.0090    1.6079 C   0  0  3  0  0  0  0  0  0  0  0  0
    7.0574    3.2352    2.5241 C   0  0  0  0  0  0  0  0  0  0  0  0
    7.6298    4.2793    1.5950 C   0  0  3  0  0  0  0  0  0  0  0  0
    7.4713    3.8015    0.1795 C   0  0  3  0  0  0  0  0  0  0  0  0
    8.7916    3.6580    0.8943 C   0  0  3  0  0  0  0  0  0  0  0  0
    8.9306    2.2422    1.3993 C   0  0  0  0  0  0  0  0  0  0  0  0
    7.3498    4.7321   -0.9747 C   0  0  0  0  0  0  0  0  0  0  0  0
    7.2453    1.5575   -0.9755 C   0  0  0  0  0  0  0  0  0  0  0  0
    3.0774   -1.3662    1.2612 C   0  0  0  0  0  0  0  0  0  0  0  0
    2.7268   -1.7764    2.5739 O   0  0  0  0  0  0  0  0  0  0  0  0
    0.4884    0.9011    0.6770 H   0  0  0  0  0  0  0  0  0  0  0  0
    0.5461   -0.3123    1.9625 H   0  0  0  0  0  0  0  0  0  0  0  0
    0.5524   -0.8149    0.2584 H   0  0  0  0  0  0  0  0  0  0  0  0
    2.5642    2.0012    0.4183 H   0  0  0  0  0  0  0  0  0  0  0  0
    4.9336    0.4051   -0.1562 H   0  0  0  0  0  0  0  0  0  0  0  0
    4.9869    0.8391    1.5644 H   0  0  0  0  0  0  0  0  0  0  0  0
    4.8625    3.2760    0.9067 H   0  0  0  0  0  0  0  0  0  0  0  0
    4.8613    2.8199   -0.7698 H   0  0  0  0  0  0  0  0  0  0  0  0
    7.1327    1.0284    2.0006 H   0  0  0  0  0  0  0  0  0  0  0  0
    7.5920    3.2042    3.4785 H   0  0  0  0  0  0  0  0  0  0  0  0
    5.9907    3.3710    2.7083 H   0  0  0  0  0  0  0  0  0  0  0  0
    7.6144    5.3122    1.8814 H   0  0  0  0  0  0  0  0  0  0  0  0
    9.6733    4.2081    0.6290 H   0  0  0  0  0  0  0  0  0  0  0  0
    9.4873    2.1932    2.3403 H   0  0  0  0  0  0  0  0  0  0  0  0
    9.3811    1.5623    0.6743 H   0  0  0  0  0  0  0  0  0  0  0  0
    6.3009    4.9105   -1.2269 H   0  0  0  0  0  0  0  0  0  0  0  0
    7.8495    4.3157   -1.8560 H   0  0  0  0  0  0  0  0  0  0  0  0
    7.8137    5.7004   -0.7592 H   0  0  0  0  0  0  0  0  0  0  0  0
    7.0497    0.4967   -0.7910 H   0  0  0  0  0  0  0  0  0  0  0  0
    8.3113    1.6658   -1.1941 H   0  0  0  0  0  0  0  0  0  0  0  0
    6.7229    1.8435   -1.8969 H   0  0  0  0  0  0  0  0  0  0  0  0
    4.1689   -1.3428    1.2031 H   0  0  0  0  0  0  0  0  0  0  0  0
    2.7340   -2.1290    0.5550 H   0  0  0  0  0  0  0  0  0  0  0  0
    3.1119   -1.1194    3.1782 H   0  0  0  0  0  0  0  0  0  0  0  0
  1  2  1  0  0  0  0
  1 17  1  0  0  0  0
  1 18  1  0  0  0  0
  1 19  1  0  0  0  0
  2  3  2  0  0  0  0
  2 15  1  0  0  0  0
  3  4  1  0  0  0  0
  3 20  1  0  0  0  0
  4  5  1  0  0  0  0
  4 21  1  0  0  0  0
  4 22  1  0  0  0  0
  5 23  1  0  0  0  0
  5 24  1  0  0  0  0
  6  5  1  1  0  0  0
  6  7  1  0  0  0  0
  6 10  1  0  0  0  0
  6 14  1  0  0  0  0
  7  8  1  0  0  0  0
  7 12  1  0  0  0  0
  7 25  1  0  0  0  0
  8  9  1  0  0  0  0
  8 26  1  0  0  0  0
  8 27  1  0  0  0  0
  9 10  1  0  0  0  0
  9 11  1  0  0  0  0
  9 28  1  0  0  0  0
 10 11  1  0  0  0  0
 10 13  1  0  0  0  0
 11 12  1  0  0  0  0
 11 29  1  0  0  0  0
 12 30  1  0  0  0  0
 12 31  1  0  0  0  0
 13 32  1  0  0  0  0
 13 33  1  0  0  0  0
 13 34  1  0  0  0  0
 14 35  1  0  0  0  0
 14 36  1  0  0  0  0
 14 37  1  0  0  0  0
 15 16  1  0  0  0  0
 15 38  1  0  0  0  0
 15 39  1  0  0  0  0
 16 40  1  0  0  0  0
M  END
$$$$
