Test
 OpenBabel07242500103D

 34 34  0     0  0  0  0  0  0999 V2000
   -3.0565    0.9999    1.0482 C   0  0  0  0  0  0  0  0  0  0  0  0
   -1.8027    0.3367    0.4485 C   0  0  0  0  0  0  0  0  0  0  0  0
   -1.9021   -0.3922   -0.6715 C   0  0  0  0  0  0  0  0  0  0  0  0
   -0.7687   -1.2386   -1.2801 C   0  0  0  0  0  0  0  0  0  0  0  0
    0.3492   -1.4638   -0.2451 C   0  0  0  0  0  0  0  0  0  0  0  0
    0.7714   -0.1644    0.4655 C   0  0  0  0  0  0  0  0  0  0  0  0
   -0.4444    0.4755    1.1609 C   0  0  0  0  0  0  0  0  0  0  0  0
   -0.1534    1.9609    1.4448 C   0  0  0  0  0  0  0  0  0  0  0  0
   -0.1121    2.4299    2.6993 C   0  0  0  0  0  0  0  0  0  0  0  0
    0.3065    3.8866    2.9722 C   0  0  0  0  0  0  0  0  0  0  0  0
    0.5563    4.6272    2.0617 O   0  0  0  0  0  0  0  0  0  0  0  0
    0.4767    4.3679    4.4252 C   0  0  0  0  0  0  0  0  0  0  0  0
    1.4088    0.7914   -0.5600 C   0  0  0  0  0  0  0  0  0  0  0  0
    1.8582   -0.5576    1.4833 C   0  0  0  0  0  0  0  0  0  0  0  0
   -3.7903    0.2362    1.3062 H   0  0  0  0  0  0  0  0  0  0  0  0
   -3.4859    1.6961    0.3279 H   0  0  0  0  0  0  0  0  0  0  0  0
   -2.7590    1.5411    1.9464 H   0  0  0  0  0  0  0  0  0  0  0  0
   -2.8826   -0.3714   -1.1474 H   0  0  0  0  0  0  0  0  0  0  0  0
   -0.3601   -0.7265   -2.1513 H   0  0  0  0  0  0  0  0  0  0  0  0
   -1.1794   -2.2012   -1.5846 H   0  0  0  0  0  0  0  0  0  0  0  0
    1.2053   -1.8774   -0.7781 H   0  0  0  0  0  0  0  0  0  0  0  0
   -0.0016   -2.1850    0.4931 H   0  0  0  0  0  0  0  0  0  0  0  0
   -0.5815   -0.0545    2.1034 H   0  0  0  0  0  0  0  0  0  0  0  0
   -0.0453    2.6453    0.6034 H   0  0  0  0  0  0  0  0  0  0  0  0
   -0.3487    1.7661    3.5309 H   0  0  0  0  0  0  0  0  0  0  0  0
    0.3070    3.5314    5.1031 H   0  0  0  0  0  0  0  0  0  0  0  0
   -0.2452    5.1574    4.6342 H   0  0  0  0  0  0  0  0  0  0  0  0
    1.4867    4.7512    4.5701 H   0  0  0  0  0  0  0  0  0  0  0  0
    0.6676    1.0537   -1.3150 H   0  0  0  0  0  0  0  0  0  0  0  0
    2.2553    0.2982   -1.0376 H   0  0  0  0  0  0  0  0  0  0  0  0
    1.7514    1.6981   -0.0614 H   0  0  0  0  0  0  0  0  0  0  0  0
    1.4707   -1.2638    2.2176 H   0  0  0  0  0  0  0  0  0  0  0  0
    2.1905    0.3480    1.9908 H   0  0  0  0  0  0  0  0  0  0  0  0
    2.6996   -1.0059    0.9549 H   0  0  0  0  0  0  0  0  0  0  0  0
  1  2 1.00  0  0  0  0
  1 15 1.00  0  0  0  0
  1 16 1.00  0  0  0  0
  1 17 1.00  0  0  0  0
  2  3 2.00  0  0  0  0
  2  7 1.00  0  0  0  0
  3  4 1.00  0  0  0  0
  3 18 1.00  0  0  0  0
  4  5 1.00  0  0  0  0
  4 19 1.00  0  0  0  0
  4 20 1.00  0  0  0  0
  5  6 1.00  0  0  0  0
  5 21 1.00  0  0  0  0
  5 22 1.00  0  0  0  0
  6  7 1.00  0  0  0  0
  6 13 1.00  0  0  0  0
  6 14 1.00  0  0  0  0
  7 23 1.00  0  0  0  0
  8  7 1.00  0  0  0  0
  8  9 2.00  0  0  0  0
  8 24 1.00  0  0  0  0
  9 10 1.00  0  0  0  0
  9 25 1.00  0  0  0  0
 10 11 2.00  0  0  0  0
 10 12 1.00  0  0  0  0
 12 26 1.00  0  0  0  0
 12 27 1.00  0  0  0  0
 12 28 1.00  0  0  0  0
 13 29 1.00  0  0  0  0
 13 30 1.00  0  0  0  0
 13 31 1.00  0  0  0  0
 14 32 1.00  0  0  0  0
 14 33 1.00  0  0  0  0
 14 34 1.00  0  0  0  0
M  END

