
 OpenBabel08242511003D

 26 27  0  0  1  0  0  0  0  0999 V2000
   -1.6020    0.0262   -0.0150 C   0  0  0  0  0  0  0  0  0  0  0  0
   -0.9280    1.1893    0.0861 C   0  0  0  0  0  0  0  0  0  0  0  0
    0.5695    1.0671    0.2327 C   0  0  2  0  0  0  0  0  0  0  0  0
    1.1220    0.0346   -0.8156 C   0  0  0  0  0  0  0  0  0  0  0  0
    0.6389   -1.0438    0.2114 C   0  0  2  0  0  0  0  0  0  0  0  0
   -0.8727   -1.3019    0.0435 C   0  0  0  0  0  0  0  0  0  0  0  0
    1.0233    0.0090    1.3401 C   0  0  0  0  0  0  0  0  0  0  0  0
    2.5192    0.0363    1.7102 C   0  0  0  0  0  0  0  0  0  0  0  0
    0.2301   -0.0403    2.6531 C   0  0  0  0  0  0  0  0  0  0  0  0
   -1.5465    2.5468    0.0556 C   0  0  0  0  0  0  0  0  0  0  0  0
   -2.6825    0.0078   -0.1240 H   0  0  0  0  0  0  0  0  0  0  0  0
    1.0853    2.0317    0.2537 H   0  0  0  0  0  0  0  0  0  0  0  0
    2.2012    0.0764   -0.9940 H   0  0  0  0  0  0  0  0  0  0  0  0
    0.6419    0.0225   -1.8008 H   0  0  0  0  0  0  0  0  0  0  0  0
    1.2209   -1.9711    0.2145 H   0  0  0  0  0  0  0  0  0  0  0  0
   -1.2507   -1.8971    0.8812 H   0  0  0  0  0  0  0  0  0  0  0  0
   -1.0592   -1.8613   -0.8793 H   0  0  0  0  0  0  0  0  0  0  0  0
    3.1858    0.0703    0.8454 H   0  0  0  0  0  0  0  0  0  0  0  0
    2.7853   -0.8579    2.2860 H   0  0  0  0  0  0  0  0  0  0  0  0
    2.7456    0.9132    2.3271 H   0  0  0  0  0  0  0  0  0  0  0  0
   -0.8532   -0.0540    2.5179 H   0  0  0  0  0  0  0  0  0  0  0  0
    0.4615    0.8325    3.2735 H   0  0  0  0  0  0  0  0  0  0  0  0
    0.4904   -0.9387    3.2241 H   0  0  0  0  0  0  0  0  0  0  0  0
   -2.6395    2.4931    0.0225 H   0  0  0  0  0  0  0  0  0  0  0  0
   -1.2077    3.0977   -0.8272 H   0  0  0  0  0  0  0  0  0  0  0  0
   -1.2654    3.1139    0.9484 H   0  0  0  0  0  0  0  0  0  0  0  0
  1  2  2  0  0  0  0
  1  6  1  0  0  0  0
  1 11  1  0  0  0  0
  2  3  1  0  0  0  0
  2 10  1  0  0  0  0
  3  4  1  0  0  0  0
  3  7  1  0  0  0  0
  3 12  1  1  0  0  0
  4  5  1  0  0  0  0
  4 13  1  0  0  0  0
  4 14  1  0  0  0  0
  5  6  1  0  0  0  0
  5  7  1  0  0  0  0
  5 15  1  1  0  0  0
  6 16  1  0  0  0  0
  6 17  1  0  0  0  0
  7  8  1  0  0  0  0
  7  9  1  0  0  0  0
  8 18  1  0  0  0  0
  8 19  1  0  0  0  0
  8 20  1  0  0  0  0
  9 21  1  0  0  0  0
  9 22  1  0  0  0  0
  9 23  1  0  0  0  0
 10 24  1  0  0  0  0
 10 25  1  0  0  0  0
 10 26  1  0  0  0  0
M  END
$$$$
