
 OpenBabel12042409423D

 39 41  0  0  1  0  0  0  0  0999 V2000
    0.8891    0.3907    0.0319 C   0  0  0  0  0  0  0  0  0  0  0  0
    2.3880    0.2694   -0.1800 C   0  0  2  0  0  0  0  0  0  0  0  0
    2.9445    1.2006   -1.2553 C   0  0  0  0  0  0  0  0  0  0  0  0
    4.3705    0.6802   -1.4609 C   0  0  0  0  0  0  0  0  0  0  0  0
    4.2267   -0.8428   -1.3987 C   0  0  2  0  0  0  0  0  0  0  0  0
    2.8860   -1.1135   -0.6192 C   0  0  2  0  0  0  0  0  0  0  0  0
    1.9586   -1.9455   -1.5413 C   0  0  0  0  0  0  0  0  0  0  0  0
    2.5471   -3.3193   -1.7883 C   0  0  0  0  0  0  0  0  0  0  0  0
    3.6532   -3.7605   -1.1434 C   0  0  0  0  0  0  0  0  0  0  0  0
    4.3634   -2.8734   -0.0974 C   0  0  2  0  0  0  0  0  0  0  0  0
    3.2674   -2.0257    0.5653 C   0  0  0  0  0  0  0  0  0  0  0  0
    5.2802   -1.7429   -0.6954 C   0  0  0  0  0  0  0  0  0  0  0  0
    6.3414   -2.2920   -1.6585 C   0  0  0  0  0  0  0  0  0  0  0  0
    6.0484   -0.9831    0.4141 C   0  0  0  0  0  0  0  0  0  0  0  0
    4.1759   -5.1476   -1.3608 C   0  0  0  0  0  0  0  0  0  0  0  0
    0.6427    1.3723    0.4495 H   0  0  0  0  0  0  0  0  0  0  0  0
    0.5374   -0.3686    0.7386 H   0  0  0  0  0  0  0  0  0  0  0  0
    0.3323    0.2771   -0.9033 H   0  0  0  0  0  0  0  0  0  0  0  0
    2.8728    0.5377    0.7680 H   0  0  0  0  0  0  0  0  0  0  0  0
    2.9409    2.2467   -0.9356 H   0  0  0  0  0  0  0  0  0  0  0  0
    2.3686    1.1227   -2.1838 H   0  0  0  0  0  0  0  0  0  0  0  0
    5.0246    1.0856   -0.6859 H   0  0  0  0  0  0  0  0  0  0  0  0
    4.7699    1.0045   -2.4275 H   0  0  0  0  0  0  0  0  0  0  0  0
    4.1280   -1.1769   -2.4416 H   0  0  0  0  0  0  0  0  0  0  0  0
    1.8057   -1.4348   -2.4998 H   0  0  0  0  0  0  0  0  0  0  0  0
    0.9724   -2.0840   -1.0836 H   0  0  0  0  0  0  0  0  0  0  0  0
    2.0260   -3.9527   -2.5035 H   0  0  0  0  0  0  0  0  0  0  0  0
    4.8802   -3.4897    0.6452 H   0  0  0  0  0  0  0  0  0  0  0  0
    3.6435   -1.4716    1.4328 H   0  0  0  0  0  0  0  0  0  0  0  0
    2.4191   -2.6212    0.9301 H   0  0  0  0  0  0  0  0  0  0  0  0
    5.9209   -2.9493   -2.4233 H   0  0  0  0  0  0  0  0  0  0  0  0
    7.0978   -2.8665   -1.1086 H   0  0  0  0  0  0  0  0  0  0  0  0
    6.8582   -1.4772   -2.1768 H   0  0  0  0  0  0  0  0  0  0  0  0
    5.3957   -0.3925    1.0641 H   0  0  0  0  0  0  0  0  0  0  0  0
    6.7702   -0.2819   -0.0218 H   0  0  0  0  0  0  0  0  0  0  0  0
    6.6086   -1.6753    1.0510 H   0  0  0  0  0  0  0  0  0  0  0  0
    3.6540   -5.6544   -2.1812 H   0  0  0  0  0  0  0  0  0  0  0  0
    4.0316   -5.7493   -0.4575 H   0  0  0  0  0  0  0  0  0  0  0  0
    5.2404   -5.1347   -1.6073 H   0  0  0  0  0  0  0  0  0  0  0  0
  1  2  1  0  0  0  0
  1 16  1  0  0  0  0
  1 17  1  0  0  0  0
  1 18  1  0  0  0  0
  2  3  1  0  0  0  0
  2  6  1  0  0  0  0
  2 19  1  1  0  0  0
  3  4  1  0  0  0  0
  3 20  1  0  0  0  0
  3 21  1  0  0  0  0
  4  5  1  0  0  0  0
  4 22  1  0  0  0  0
  4 23  1  0  0  0  0
  5  6  1  0  0  0  0
  5 12  1  0  0  0  0
  5 24  1  6  0  0  0
  6  7  1  6  0  0  0
  6 11  1  0  0  0  0
  7  8  1  0  0  0  0
  7 25  1  0  0  0  0
  7 26  1  0  0  0  0
  8  9  2  0  0  0  0
  8 27  1  0  0  0  0
  9 10  1  0  0  0  0
  9 15  1  0  0  0  0
 10 11  1  0  0  0  0
 10 12  1  0  0  0  0
 10 28  1  1  0  0  0
 11 29  1  0  0  0  0
 11 30  1  0  0  0  0
 12 13  1  0  0  0  0
 12 14  1  0  0  0  0
 13 31  1  0  0  0  0
 13 32  1  0  0  0  0
 13 33  1  0  0  0  0
 14 34  1  0  0  0  0
 14 35  1  0  0  0  0
 14 36  1  0  0  0  0
 15 37  1  0  0  0  0
 15 38  1  0  0  0  0
 15 39  1  0  0  0  0
M  END
$$$$
