Test
 OpenBabel07032507163D

 34 34  0     0  0  0  0  0  0999 V2000
    9.7832   -1.5676    4.5503 C   0  0  0  0  0  0  0  0  0  0  0  0
    8.9602   -0.9912    3.3832 C   0  0  0  0  0  0  0  0  0  0  0  0
    8.2656    0.1447    3.5346 C   0  0  0  0  0  0  0  0  0  0  0  0
    7.4909    0.6977    2.3240 C   0  0  0  0  0  0  0  0  0  0  0  0
    7.5206    0.1142    1.2758 O   0  0  0  0  0  0  0  0  0  0  0  0
    6.5766    1.9253    2.4947 C   0  0  0  0  0  0  0  0  0  0  0  0
    5.6242    1.8893    3.7043 C   0  0  0  0  0  0  0  0  0  0  0  0
    5.4687    2.9488    4.5099 C   0  0  0  0  0  0  0  0  0  0  0  0
    6.1121    4.3329    4.3052 C   0  0  0  0  0  0  0  0  0  0  0  0
    6.6106    4.4471    2.8525 C   0  0  0  0  0  0  0  0  0  0  0  0
    7.4203    3.2107    2.4072 C   0  0  0  0  0  0  0  0  0  0  0  0
    8.7206    3.1542    3.2303 C   0  0  0  0  0  0  0  0  0  0  0  0
    7.8215    3.4768    0.9444 C   0  0  0  0  0  0  0  0  0  0  0  0
    4.6990    0.6717    3.8859 C   0  0  0  0  0  0  0  0  0  0  0  0
   10.8313   -1.6329    4.2582 H   0  0  0  0  0  0  0  0  0  0  0  0
    9.4153   -2.5627    4.8004 H   0  0  0  0  0  0  0  0  0  0  0  0
    9.6875   -0.9162    5.4189 H   0  0  0  0  0  0  0  0  0  0  0  0
    8.9434   -1.5132    2.4265 H   0  0  0  0  0  0  0  0  0  0  0  0
    8.2232    0.6643    4.4919 H   0  0  0  0  0  0  0  0  0  0  0  0
    5.9976    1.8077    1.5788 H   0  0  0  0  0  0  0  0  0  0  0  0
    4.7723    2.7879    5.3328 H   0  0  0  0  0  0  0  0  0  0  0  0
    6.9530    4.4476    4.9892 H   0  0  0  0  0  0  0  0  0  0  0  0
    5.3775    5.1144    4.4989 H   0  0  0  0  0  0  0  0  0  0  0  0
    7.2517    5.3249    2.7719 H   0  0  0  0  0  0  0  0  0  0  0  0
    5.7509    4.5632    2.1926 H   0  0  0  0  0  0  0  0  0  0  0  0
    8.4954    3.0126    4.2873 H   0  0  0  0  0  0  0  0  0  0  0  0
    9.2795    4.0805    3.0971 H   0  0  0  0  0  0  0  0  0  0  0  0
    9.3157    2.3144    2.8716 H   0  0  0  0  0  0  0  0  0  0  0  0
    6.9313    3.5748    0.3232 H   0  0  0  0  0  0  0  0  0  0  0  0
    8.4319    2.6468    0.5885 H   0  0  0  0  0  0  0  0  0  0  0  0
    8.4008    4.3991    0.9001 H   0  0  0  0  0  0  0  0  0  0  0  0
    5.1419   -0.1816    3.3724 H   0  0  0  0  0  0  0  0  0  0  0  0
    3.7165    0.8806    3.4626 H   0  0  0  0  0  0  0  0  0  0  0  0
    4.5946    0.4416    4.9462 H   0  0  0  0  0  0  0  0  0  0  0  0
  1  2 1.00  0  0  0  0
  1 15 1.00  0  0  0  0
  1 16 1.00  0  0  0  0
  1 17 1.00  0  0  0  0
  2  3 2.00  0  0  0  0
  2 18 1.00  0  0  0  0
  3  4 1.00  0  0  0  0
  3 19 1.00  0  0  0  0
  4  5 2.00  0  0  0  0
  4  6 1.00  0  0  0  0
  6  7 1.00  0  0  0  0
  6 11 1.00  0  0  0  0
  6 20 1.00  0  0  0  0
  7 14 1.00  0  0  0  0
  8  7 2.00  0  0  0  0
  8  9 1.00  0  0  0  0
  8 21 1.00  0  0  0  0
  9 10 1.00  0  0  0  0
  9 22 1.00  0  0  0  0
  9 23 1.00  0  0  0  0
 10 11 1.00  0  0  0  0
 10 24 1.00  0  0  0  0
 10 25 1.00  0  0  0  0
 11 12 1.00  0  0  0  0
 11 13 1.00  0  0  0  0
 12 26 1.00  0  0  0  0
 12 27 1.00  0  0  0  0
 12 28 1.00  0  0  0  0
 13 29 1.00  0  0  0  0
 13 30 1.00  0  0  0  0
 13 31 1.00  0  0  0  0
 14 32 1.00  0  0  0  0
 14 33 1.00  0  0  0  0
 14 34 1.00  0  0  0  0
M  END

