
 OpenBabel07232516413D

 50 53  0  0  1  0  0  0  0  0999 V2000
    0.9527   -0.0522    0.3728 C   0  0  0  0  0  0  0  0  0  0  0  0
    1.6210   -1.0977   -0.5416 C   0  0  0  0  0  0  0  0  0  0  0  0
    0.6454   -2.2843   -0.7051 C   0  0  0  0  0  0  0  0  0  0  0  0
    0.5363   -3.1200    0.5632 C   0  0  0  0  0  0  0  0  0  0  0  0
    1.8737   -3.7690    0.8638 C   0  0  0  0  0  0  0  0  0  0  0  0
    3.0628   -2.7778    1.0322 C   0  0  3  0  0  0  0  0  0  0  0  0
    3.0252   -1.6388   -0.0684 C   0  0  3  0  0  0  0  0  0  0  0  0
    4.0620   -0.5163    0.2082 C   0  0  0  0  0  0  0  0  0  0  0  0
    4.0582    0.0224    1.6299 C   0  0  0  0  0  0  0  0  0  0  0  0
    4.1924   -1.0658    2.6798 C   0  0  2  0  0  0  0  0  0  0  0  0
    3.1040   -2.1623    2.4934 C   0  0  3  0  0  0  0  0  0  0  0  0
    3.1661   -3.1853    3.6659 C   0  0  0  0  0  0  0  0  0  0  0  0
    3.5091   -2.5352    5.0270 C   0  0  0  0  0  0  0  0  0  0  0  0
    4.5228   -1.4015    4.8662 C   0  0  3  0  0  0  0  0  0  0  0  0
    3.9561   -0.4510    3.9607 O   0  0  0  0  0  0  0  0  0  0  0  0
    5.7080   -1.9353    4.2715 O   0  0  0  0  0  0  0  0  0  0  0  0
    5.6221   -1.5721    2.8875 C   0  0  0  0  0  0  0  0  0  0  0  0
    4.8824   -0.7128    6.1675 C   0  0  0  0  0  0  0  0  0  0  0  0
    4.3206   -3.6474    0.7256 C   0  0  0  0  0  0  0  0  0  0  0  0
    1.7892   -0.4156   -1.9315 C   0  0  0  0  0  0  0  0  0  0  0  0
    0.7675   -0.4190    1.3825 H   0  0  0  0  0  0  0  0  0  0  0  0
   -0.0219    0.2442   -0.0438 H   0  0  0  0  0  0  0  0  0  0  0  0
    1.5381    0.8676    0.4443 H   0  0  0  0  0  0  0  0  0  0  0  0
    0.9802   -2.9264   -1.5325 H   0  0  0  0  0  0  0  0  0  0  0  0
   -0.3529   -1.9261   -0.9839 H   0  0  0  0  0  0  0  0  0  0  0  0
   -0.2153   -3.9038    0.4108 H   0  0  0  0  0  0  0  0  0  0  0  0
    0.1935   -2.5269    1.4158 H   0  0  0  0  0  0  0  0  0  0  0  0
    2.0786   -4.4522    0.0272 H   0  0  0  0  0  0  0  0  0  0  0  0
    1.7762   -4.4237    1.7367 H   0  0  0  0  0  0  0  0  0  0  0  0
    3.4120   -2.1344   -0.9722 H   0  0  0  0  0  0  0  0  0  0  0  0
    3.9299    0.3216   -0.4853 H   0  0  0  0  0  0  0  0  0  0  0  0
    5.0697   -0.9044   -0.0058 H   0  0  0  0  0  0  0  0  0  0  0  0
    3.1477    0.5944    1.8235 H   0  0  0  0  0  0  0  0  0  0  0  0
    4.8644    0.7583    1.7435 H   0  0  0  0  0  0  0  0  0  0  0  0
    2.1439   -1.6556    2.6398 H   0  0  0  0  0  0  0  0  0  0  0  0
    3.9208   -3.9498    3.4665 H   0  0  0  0  0  0  0  0  0  0  0  0
    2.2098   -3.7059    3.7686 H   0  0  0  0  0  0  0  0  0  0  0  0
    3.8959   -3.3102    5.6969 H   0  0  0  0  0  0  0  0  0  0  0  0
    2.5840   -2.1411    5.4676 H   0  0  0  0  0  0  0  0  0  0  0  0
    5.9165   -2.4362    2.3047 H   0  0  0  0  0  0  0  0  0  0  0  0
    6.3657   -0.7832    2.7133 H   0  0  0  0  0  0  0  0  0  0  0  0
    3.9969   -0.3139    6.6689 H   0  0  0  0  0  0  0  0  0  0  0  0
    5.5487    0.1365    5.9678 H   0  0  0  0  0  0  0  0  0  0  0  0
    5.4166   -1.3862    6.8452 H   0  0  0  0  0  0  0  0  0  0  0  0
    4.1997   -4.1907   -0.2208 H   0  0  0  0  0  0  0  0  0  0  0  0
    4.5093   -4.4022    1.4929 H   0  0  0  0  0  0  0  0  0  0  0  0
    5.2232   -3.0528    0.5812 H   0  0  0  0  0  0  0  0  0  0  0  0
    1.9781    0.6605   -1.8337 H   0  0  0  0  0  0  0  0  0  0  0  0
    0.8949   -0.5321   -2.5522 H   0  0  0  0  0  0  0  0  0  0  0  0
    2.6299   -0.8338   -2.4974 H   0  0  0  0  0  0  0  0  0  0  0  0
  1  2  1  0  0  0  0
  1 21  1  0  0  0  0
  1 22  1  0  0  0  0
  1 23  1  0  0  0  0
  2  3  1  0  0  0  0
  2  7  1  0  0  0  0
  2 20  1  0  0  0  0
  3  4  1  0  0  0  0
  3 24  1  0  0  0  0
  3 25  1  0  0  0  0
  4  5  1  0  0  0  0
  4 26  1  0  0  0  0
  4 27  1  0  0  0  0
  5  6  1  0  0  0  0
  5 28  1  0  0  0  0
  5 29  1  0  0  0  0
  6  7  1  0  0  0  0
  6 11  1  0  0  0  0
  6 19  1  0  0  0  0
  7  8  1  0  0  0  0
  7 30  1  0  0  0  0
  8  9  1  0  0  0  0
  8 31  1  0  0  0  0
  8 32  1  0  0  0  0
  9 10  1  0  0  0  0
  9 33  1  0  0  0  0
  9 34  1  0  0  0  0
 10 11  1  0  0  0  0
 10 15  1  1  0  0  0
 10 17  1  0  0  0  0
 11 12  1  0  0  0  0
 11 35  1  0  0  0  0
 12 13  1  0  0  0  0
 12 36  1  0  0  0  0
 12 37  1  0  0  0  0
 13 14  1  0  0  0  0
 13 38  1  0  0  0  0
 13 39  1  0  0  0  0
 14 15  1  0  0  0  0
 14 16  1  0  0  0  0
 14 18  1  0  0  0  0
 16 17  1  0  0  0  0
 17 40  1  0  0  0  0
 17 41  1  0  0  0  0
 18 42  1  0  0  0  0
 18 43  1  0  0  0  0
 18 44  1  0  0  0  0
 19 45  1  0  0  0  0
 19 46  1  0  0  0  0
 19 47  1  0  0  0  0
 20 48  1  0  0  0  0
 20 49  1  0  0  0  0
 20 50  1  0  0  0  0
M  END
$$$$
