
 OpenBabel09262523043D

 43 45  0  0  1  0  0  0  0  0999 V2000
    2.9586   -1.5150   -1.1627 C   0  0  0  0  0  0  0  0  0  0  0  0
    2.3159   -0.6354   -0.0629 C   0  0  0  0  0  0  0  0  0  0  0  0
    2.8213   -1.1541    1.2973 C   0  0  0  0  0  0  0  0  0  0  0  0
    2.8928    0.7649   -0.1914 C   0  0  0  0  0  0  0  0  0  0  0  0
    2.2064    1.8577    0.1556 C   0  0  0  0  0  0  0  0  0  0  0  0
    0.7916    1.7483    0.6040 C   0  0  0  0  0  0  0  0  0  0  0  0
   -0.0066    0.7037   -0.2277 C   0  0  1  0  0  0  0  0  0  0  0  0
    0.7242   -0.7052   -0.2252 C   0  0  3  0  0  0  0  0  0  0  0  0
    0.0820   -1.7271    0.7616 C   0  0  0  0  0  0  0  0  0  0  0  0
   -1.4419   -1.9195    0.6843 C   0  0  0  0  0  0  0  0  0  0  0  0
   -2.1810   -0.7114    0.1107 C   0  0  2  0  0  0  0  0  0  0  0  0
   -1.3912    0.5569    0.4341 C   0  0  3  0  0  0  0  0  0  0  0  0
   -2.4524    1.6248    0.3072 C   0  0  0  0  0  0  0  0  0  0  0  0
   -3.5879    0.9208    1.0406 C   0  0  0  0  0  0  0  0  0  0  0  0
   -3.4439   -0.4970    0.7905 O   0  0  0  0  0  0  0  0  0  0  0  0
   -2.5487   -0.9816   -1.3551 C   0  0  0  0  0  0  0  0  0  0  0  0
   -0.0966    1.2474   -1.6831 C   0  0  0  0  0  0  0  0  0  0  0  0
    4.0466   -1.5779   -1.0402 H   0  0  0  0  0  0  0  0  0  0  0  0
    2.7645   -1.1082   -2.1621 H   0  0  0  0  0  0  0  0  0  0  0  0
    2.5653   -2.5364   -1.1287 H   0  0  0  0  0  0  0  0  0  0  0  0
    2.3961   -0.5850    2.1323 H   0  0  0  0  0  0  0  0  0  0  0  0
    3.9170   -1.0666    1.3835 H   0  0  0  0  0  0  0  0  0  0  0  0
    2.5905   -2.2145    1.4535 H   0  0  0  0  0  0  0  0  0  0  0  0
    3.9377    0.8685   -0.4789 H   0  0  0  0  0  0  0  0  0  0  0  0
    2.6745    2.8355    0.1323 H   0  0  0  0  0  0  0  0  0  0  0  0
    0.3155    2.7337    0.5208 H   0  0  0  0  0  0  0  0  0  0  0  0
    0.7844    1.4945    1.6720 H   0  0  0  0  0  0  0  0  0  0  0  0
    0.5296   -1.1392   -1.2179 H   0  0  0  0  0  0  0  0  0  0  0  0
    0.5466   -2.7112    0.6217 H   0  0  0  0  0  0  0  0  0  0  0  0
    0.3047   -1.4164    1.7891 H   0  0  0  0  0  0  0  0  0  0  0  0
   -1.8131   -2.1446    1.6930 H   0  0  0  0  0  0  0  0  0  0  0  0
   -1.6620   -2.8213    0.0987 H   0  0  0  0  0  0  0  0  0  0  0  0
   -1.1880    0.5113    1.5190 H   0  0  0  0  0  0  0  0  0  0  0  0
   -2.1861    2.5793    0.7682 H   0  0  0  0  0  0  0  0  0  0  0  0
   -2.7293    1.8111   -0.7356 H   0  0  0  0  0  0  0  0  0  0  0  0
   -3.4916    1.0656    2.1238 H   0  0  0  0  0  0  0  0  0  0  0  0
   -4.5792    1.2607    0.7325 H   0  0  0  0  0  0  0  0  0  0  0  0
   -1.6743   -1.1514   -1.9872 H   0  0  0  0  0  0  0  0  0  0  0  0
   -3.1776   -1.8788   -1.4244 H   0  0  0  0  0  0  0  0  0  0  0  0
   -3.1516   -0.1753   -1.7848 H   0  0  0  0  0  0  0  0  0  0  0  0
    0.7431    0.9020   -2.2973 H   0  0  0  0  0  0  0  0  0  0  0  0
   -0.0811    2.3435   -1.7091 H   0  0  0  0  0  0  0  0  0  0  0  0
   -1.0098    0.9449   -2.1971 H   0  0  0  0  0  0  0  0  0  0  0  0
  1  2  1  0  0  0  0
  1 18  1  0  0  0  0
  1 19  1  0  0  0  0
  1 20  1  0  0  0  0
  2  3  1  0  0  0  0
  2  4  1  0  0  0  0
  2  8  1  0  0  0  0
  3 21  1  0  0  0  0
  3 22  1  0  0  0  0
  3 23  1  0  0  0  0
  4  5  2  0  0  0  0
  4 24  1  0  0  0  0
  5  6  1  0  0  0  0
  5 25  1  0  0  0  0
  6  7  1  0  0  0  0
  6 26  1  0  0  0  0
  6 27  1  0  0  0  0
  7  8  1  0  0  0  0
  7 12  1  0  0  0  0
  7 17  1  6  0  0  0
  8  9  1  0  0  0  0
  8 28  1  0  0  0  0
  9 10  1  0  0  0  0
  9 29  1  0  0  0  0
  9 30  1  0  0  0  0
 10 11  1  0  0  0  0
 10 31  1  0  0  0  0
 10 32  1  0  0  0  0
 11 12  1  0  0  0  0
 11 15  1  0  0  0  0
 11 16  1  6  0  0  0
 12 13  1  0  0  0  0
 12 33  1  0  0  0  0
 13 14  1  0  0  0  0
 13 34  1  0  0  0  0
 13 35  1  0  0  0  0
 14 15  1  0  0  0  0
 14 36  1  0  0  0  0
 14 37  1  0  0  0  0
 16 38  1  0  0  0  0
 16 39  1  0  0  0  0
 16 40  1  0  0  0  0
 17 41  1  0  0  0  0
 17 42  1  0  0  0  0
 17 43  1  0  0  0  0
M  END
$$$$
