
 OpenBabel01032513193D

 46 46  0  0  0  0  0  0  0  0999 V2000
    7.3914    0.5229   -0.3849 C   0  0  0  0  0  0  0  0  0  0  0  0
    8.7492    1.0959    0.3616 C   0  0  0  0  0  0  0  0  0  0  0  0
    9.8067    0.5203    1.4194 C   0  0  0  0  0  0  0  0  0  0  0  0
   11.1044    1.4455    1.8463 C   0  0  0  0  0  0  0  0  0  0  0  0
   10.9988    2.2266    3.1915 C   0  0  0  0  0  0  0  0  0  0  0  0
   12.2515    2.8232    3.7727 O   0  0  0  0  0  0  0  0  0  0  0  0
   12.4889    3.5018    4.9641 C   0  0  0  0  0  0  0  0  0  0  0  0
   13.6637    3.7313    5.3185 O   0  0  0  0  0  0  0  0  0  0  0  0
   11.3824    4.0478    5.8894 C   0  0  0  0  0  0  0  0  0  0  0  0
   10.0403    3.7226    5.3607 C   0  0  0  0  0  0  0  0  0  0  0  0
    8.6364    3.9727    5.8655 C   0  0  0  0  0  0  0  0  0  0  0  0
    7.8087    3.1948    4.8189 C   0  0  0  0  0  0  0  0  0  0  0  0
    6.2969    3.0770    4.9711 C   0  0  0  0  0  0  0  0  0  0  0  0
    5.9527    1.9992    3.9866 C   0  0  0  0  0  0  0  0  0  0  0  0
    4.9722    1.9620    3.0406 C   0  0  0  0  0  0  0  0  0  0  0  0
    5.5223    1.2473    1.8474 C   0  0  0  0  0  0  0  0  0  0  0  0
    4.7945    0.6462    0.6841 C   0  0  0  0  0  0  0  0  0  0  0  0
    5.9345   -0.0889   -0.1179 C   0  0  0  0  0  0  0  0  0  0  0  0
    7.1226    1.3990   -0.9936 H   0  0  0  0  0  0  0  0  0  0  0  0
    7.7881   -0.2155   -1.0917 H   0  0  0  0  0  0  0  0  0  0  0  0
    8.6148    2.1660    0.5486 H   0  0  0  0  0  0  0  0  0  0  0  0
    9.4025    1.0726   -0.5296 H   0  0  0  0  0  0  0  0  0  0  0  0
    9.3336    0.1365    2.3273 H   0  0  0  0  0  0  0  0  0  0  0  0
   10.2865   -0.3345    0.9214 H   0  0  0  0  0  0  0  0  0  0  0  0
   11.3700    2.1429    1.0453 H   0  0  0  0  0  0  0  0  0  0  0  0
   11.9760    0.7851    1.9574 H   0  0  0  0  0  0  0  0  0  0  0  0
   10.6274    1.5155    3.9303 H   0  0  0  0  0  0  0  0  0  0  0  0
   10.3226    3.0483    2.9670 H   0  0  0  0  0  0  0  0  0  0  0  0
   11.5251    5.1416    5.9646 H   0  0  0  0  0  0  0  0  0  0  0  0
   11.5325    3.6189    6.8958 H   0  0  0  0  0  0  0  0  0  0  0  0
   10.0961    2.6344    5.3441 H   0  0  0  0  0  0  0  0  0  0  0  0
   10.0491    4.1988    4.3861 H   0  0  0  0  0  0  0  0  0  0  0  0
    8.3819    5.0350    5.8548 H   0  0  0  0  0  0  0  0  0  0  0  0
    8.4804    3.5592    6.8647 H   0  0  0  0  0  0  0  0  0  0  0  0
    8.2286    2.1716    4.8132 H   0  0  0  0  0  0  0  0  0  0  0  0
    8.0325    3.5939    3.8122 H   0  0  0  0  0  0  0  0  0  0  0  0
    5.8243    4.0278    4.7178 H   0  0  0  0  0  0  0  0  0  0  0  0
    6.0307    2.7696    5.9792 H   0  0  0  0  0  0  0  0  0  0  0  0
    6.7563    1.2928    3.8327 H   0  0  0  0  0  0  0  0  0  0  0  0
    4.1468    2.6282    3.0050 H   0  0  0  0  0  0  0  0  0  0  0  0
    6.1202    0.4042    2.2115 H   0  0  0  0  0  0  0  0  0  0  0  0
    6.1861    1.9950    1.3891 H   0  0  0  0  0  0  0  0  0  0  0  0
    4.2764    1.3986    0.0832 H   0  0  0  0  0  0  0  0  0  0  0  0
    4.0429   -0.0775    1.0099 H   0  0  0  0  0  0  0  0  0  0  0  0
    6.0274   -1.0900    0.3084 H   0  0  0  0  0  0  0  0  0  0  0  0
    5.4795   -0.2407   -1.1089 H   0  0  0  0  0  0  0  0  0  0  0  0
  1  2  1  0  0  0  0
  1 18  1  0  0  0  0
  1 19  1  0  0  0  0
  1 20  1  0  0  0  0
  2  3  1  0  0  0  0
  2 21  1  0  0  0  0
  2 22  1  0  0  0  0
  3  4  1  0  0  0  0
  3 23  1  0  0  0  0
  3 24  1  0  0  0  0
  4  5  1  0  0  0  0
  4 25  1  0  0  0  0
  4 26  1  0  0  0  0
  5  6  1  0  0  0  0
  5 27  1  0  0  0  0
  5 28  1  0  0  0  0
  6  7  1  0  0  0  0
  7  8  2  0  0  0  0
  7  9  1  0  0  0  0
  9 10  1  0  0  0  0
  9 29  1  0  0  0  0
  9 30  1  0  0  0  0
 10 11  1  0  0  0  0
 10 31  1  0  0  0  0
 10 32  1  0  0  0  0
 11 12  1  0  0  0  0
 11 33  1  0  0  0  0
 11 34  1  0  0  0  0
 12 13  1  0  0  0  0
 12 35  1  0  0  0  0
 12 36  1  0  0  0  0
 13 14  1  0  0  0  0
 13 37  1  0  0  0  0
 13 38  1  0  0  0  0
 14 15  2  3  0  0  0
 14 39  1  0  0  0  0
 15 16  1  0  0  0  0
 15 40  1  0  0  0  0
 16 17  1  0  0  0  0
 16 41  1  0  0  0  0
 16 42  1  0  0  0  0
 17 18  1  0  0  0  0
 17 43  1  0  0  0  0
 17 44  1  0  0  0  0
 18 45  1  0  0  0  0
 18 46  1  0  0  0  0
M  END
$$$$
