
 OpenBabel08302415353D

 53 52  0  0  0  0  0  0  0  0999 V2000
    0.9934   -0.0755    0.0597 C   0  0  0  0  0  0  0  0  0  0  0  0
    2.5126   -0.0722    0.0678 C   0  0  0  0  0  0  0  0  0  0  0  0
    3.0357    0.4903    1.3809 C   0  0  0  0  0  0  0  0  0  0  0  0
    4.5553    0.4925    1.3909 C   0  0  0  0  0  0  0  0  0  0  0  0
    5.0712    1.0576    2.7054 C   0  0  0  0  0  0  0  0  0  0  0  0
    6.5914    1.0619    2.7159 C   0  0  0  0  0  0  0  0  0  0  0  0
    7.1045    1.6254    4.0316 C   0  0  0  0  0  0  0  0  0  0  0  0
    8.6255    1.6308    4.0483 C   0  0  0  0  0  0  0  0  0  0  0  0
    9.1451    2.1957    5.3661 C   0  0  0  0  0  0  0  0  0  0  0  0
   10.6676    2.2035    5.3704 C   0  0  0  0  0  0  0  0  0  0  0  0
   11.2334    2.7765    6.6659 C   0  0  0  0  0  0  0  0  0  0  0  0
   12.7508    2.7523    6.6486 C   0  0  0  0  0  0  0  0  0  0  0  0
   13.4426    2.3006    5.7551 O   0  0  0  0  0  0  0  0  0  0  0  0
   13.2203    3.1774    7.8535 O   0  0  0  0  0  0  0  0  0  0  0  0
   14.1409    2.2647    8.4609 C   0  0  0  0  0  0  0  0  0  0  0  0
   15.5555    2.8306    8.5559 C   0  0  0  0  0  0  0  0  0  0  0  0
   16.4838    1.8514    9.2811 C   0  0  0  0  0  0  0  0  0  0  0  0
   17.9064    2.3854    9.3839 C   0  0  0  0  0  0  0  0  0  0  0  0
   18.8177    1.4050   10.0973 C   0  0  0  0  0  0  0  0  0  0  0  0
    0.6183   -0.4796   -0.8839 H   0  0  0  0  0  0  0  0  0  0  0  0
    0.6037    0.9407    0.1792 H   0  0  0  0  0  0  0  0  0  0  0  0
    0.6036   -0.6902    0.8776 H   0  0  0  0  0  0  0  0  0  0  0  0
    2.8804    0.5288   -0.7717 H   0  0  0  0  0  0  0  0  0  0  0  0
    2.8803   -1.0945   -0.0765 H   0  0  0  0  0  0  0  0  0  0  0  0
    2.6609   -0.1099    2.2191 H   0  0  0  0  0  0  0  0  0  0  0  0
    2.6630    1.5121    1.5233 H   0  0  0  0  0  0  0  0  0  0  0  0
    4.9344    1.0937    0.5553 H   0  0  0  0  0  0  0  0  0  0  0  0
    4.9321   -0.5285    1.2537 H   0  0  0  0  0  0  0  0  0  0  0  0
    4.6953    0.4567    3.5430 H   0  0  0  0  0  0  0  0  0  0  0  0
    4.6957    2.0789    2.8457 H   0  0  0  0  0  0  0  0  0  0  0  0
    6.9675    1.6643    1.8796 H   0  0  0  0  0  0  0  0  0  0  0  0
    6.9673    0.0410    2.5749 H   0  0  0  0  0  0  0  0  0  0  0  0
    6.7252    1.0231    4.8662 H   0  0  0  0  0  0  0  0  0  0  0  0
    6.7274    2.6462    4.1701 H   0  0  0  0  0  0  0  0  0  0  0  0
    9.0011    2.2317    3.2105 H   0  0  0  0  0  0  0  0  0  0  0  0
    8.9997    0.6090    3.9050 H   0  0  0  0  0  0  0  0  0  0  0  0
    8.7686    1.5893    6.1994 H   0  0  0  0  0  0  0  0  0  0  0  0
    8.7638    3.2138    5.5058 H   0  0  0  0  0  0  0  0  0  0  0  0
   11.0342    2.7927    4.5199 H   0  0  0  0  0  0  0  0  0  0  0  0
   11.0369    1.1808    5.2262 H   0  0  0  0  0  0  0  0  0  0  0  0
   10.8973    2.1637    7.5083 H   0  0  0  0  0  0  0  0  0  0  0  0
   10.8900    3.8044    6.8141 H   0  0  0  0  0  0  0  0  0  0  0  0
   14.1443    1.2960    7.9452 H   0  0  0  0  0  0  0  0  0  0  0  0
   13.7523    2.0873    9.4662 H   0  0  0  0  0  0  0  0  0  0  0  0
   15.5343    3.7899    9.0898 H   0  0  0  0  0  0  0  0  0  0  0  0
   15.9396    3.0452    7.5540 H   0  0  0  0  0  0  0  0  0  0  0  0
   16.4918    0.8902    8.7486 H   0  0  0  0  0  0  0  0  0  0  0  0
   16.0953    1.6489   10.2889 H   0  0  0  0  0  0  0  0  0  0  0  0
   17.9076    3.3391    9.9256 H   0  0  0  0  0  0  0  0  0  0  0  0
   18.3029    2.5829    8.3822 H   0  0  0  0  0  0  0  0  0  0  0  0
   18.4658    1.2104   11.1165 H   0  0  0  0  0  0  0  0  0  0  0  0
   19.8357    1.8037   10.1616 H   0  0  0  0  0  0  0  0  0  0  0  0
   18.8617    0.4495    9.5629 H   0  0  0  0  0  0  0  0  0  0  0  0
  1  2  1  0  0  0  0
  1 20  1  0  0  0  0
  1 21  1  0  0  0  0
  1 22  1  0  0  0  0
  2  3  1  0  0  0  0
  2 23  1  0  0  0  0
  2 24  1  0  0  0  0
  3  4  1  0  0  0  0
  3 25  1  0  0  0  0
  3 26  1  0  0  0  0
  4  5  1  0  0  0  0
  4 27  1  0  0  0  0
  4 28  1  0  0  0  0
  5  6  1  0  0  0  0
  5 29  1  0  0  0  0
  5 30  1  0  0  0  0
  6  7  1  0  0  0  0
  6 31  1  0  0  0  0
  6 32  1  0  0  0  0
  7  8  1  0  0  0  0
  7 33  1  0  0  0  0
  7 34  1  0  0  0  0
  8  9  1  0  0  0  0
  8 35  1  0  0  0  0
  8 36  1  0  0  0  0
  9 10  1  0  0  0  0
  9 37  1  0  0  0  0
  9 38  1  0  0  0  0
 10 11  1  0  0  0  0
 10 39  1  0  0  0  0
 10 40  1  0  0  0  0
 11 12  1  0  0  0  0
 11 41  1  0  0  0  0
 11 42  1  0  0  0  0
 12 13  2  0  0  0  0
 12 14  1  0  0  0  0
 14 15  1  0  0  0  0
 15 16  1  0  0  0  0
 15 43  1  0  0  0  0
 15 44  1  0  0  0  0
 16 17  1  0  0  0  0
 16 45  1  0  0  0  0
 16 46  1  0  0  0  0
 17 18  1  0  0  0  0
 17 47  1  0  0  0  0
 17 48  1  0  0  0  0
 18 19  1  0  0  0  0
 18 49  1  0  0  0  0
 18 50  1  0  0  0  0
 19 51  1  0  0  0  0
 19 52  1  0  0  0  0
 19 53  1  0  0  0  0
M  END
$$$$
