
 OpenBabel10032515313D

 23 23  0  0  0  0  0  0  0  0999 V2000
    0.9823   -0.0623    0.1980 C   0  0  0  0  0  0  0  0  0  0  0  0
    2.5125   -0.0484    0.1201 C   0  0  0  0  0  0  0  0  0  0  0  0
    3.1123   -0.2517    1.5145 C   0  0  0  0  0  0  0  0  0  0  0  0
    2.9980   -1.1229   -0.8316 C   0  0  0  0  0  0  0  0  0  0  0  0
    2.6500   -2.4063   -0.5179 N   0  0  0  0  0  0  0  0  0  0  0  0
    3.0619   -3.3654   -1.3731 C   0  0  0  0  0  0  0  0  0  0  0  0
    3.8013   -3.0754   -2.5032 C   0  0  0  0  0  0  0  0  0  0  0  0
    4.1616   -1.8157   -2.8277 N   0  0  0  0  0  0  0  0  0  0  0  0
    3.7479   -0.8421   -1.9799 C   0  0  0  0  0  0  0  0  0  0  0  0
    4.0719    0.4659   -2.2738 O   0  0  0  0  0  0  0  0  0  0  0  0
    4.8530    0.5954   -3.4609 C   0  0  0  0  0  0  0  0  0  0  0  0
    0.6201    0.7304    0.8606 H   0  0  0  0  0  0  0  0  0  0  0  0
    0.6036   -1.0156    0.5850 H   0  0  0  0  0  0  0  0  0  0  0  0
    0.5380    0.0942   -0.7910 H   0  0  0  0  0  0  0  0  0  0  0  0
    2.8187    0.9419   -0.2344 H   0  0  0  0  0  0  0  0  0  0  0  0
    2.8267   -1.2194    1.9433 H   0  0  0  0  0  0  0  0  0  0  0  0
    2.7687    0.5288    2.2020 H   0  0  0  0  0  0  0  0  0  0  0  0
    4.2064   -0.2136    1.4807 H   0  0  0  0  0  0  0  0  0  0  0  0
    2.7790   -4.3804   -1.1242 H   0  0  0  0  0  0  0  0  0  0  0  0
    4.1239   -3.8527   -3.1848 H   0  0  0  0  0  0  0  0  0  0  0  0
    5.0199    1.6611   -3.6447 H   0  0  0  0  0  0  0  0  0  0  0  0
    4.3288    0.1909   -4.3348 H   0  0  0  0  0  0  0  0  0  0  0  0
    5.8340    0.1211   -3.3393 H   0  0  0  0  0  0  0  0  0  0  0  0
  1  2  1  0  0  0  0
  1 12  1  0  0  0  0
  1 13  1  0  0  0  0
  1 14  1  0  0  0  0
  2  3  1  0  0  0  0
  2  4  1  0  0  0  0
  2 15  1  0  0  0  0
  3 16  1  0  0  0  0
  3 17  1  0  0  0  0
  3 18  1  0  0  0  0
  4  5  2  0  0  0  0
  4  9  1  0  0  0  0
  5  6  1  0  0  0  0
  6  7  2  0  0  0  0
  6 19  1  0  0  0  0
  7  8  1  0  0  0  0
  7 20  1  0  0  0  0
  8  9  2  0  0  0  0
  9 10  1  0  0  0  0
 10 11  1  0  0  0  0
 11 21  1  0  0  0  0
 11 22  1  0  0  0  0
 11 23  1  0  0  0  0
M  END
$$$$
