
 OpenBabel01032514473D

 14 14  0  0  0  0  0  0  0  0999 V2000
    1.4032   -0.2197   -0.0511 C   0  0  0  0  0  0  0  0  0  0  0  0
    0.5171   -1.2973    0.0033 C   0  0  0  0  0  0  0  0  0  0  0  0
   -0.8603   -1.0705    0.0295 C   0  0  0  0  0  0  0  0  0  0  0  0
   -1.3572    0.2335    0.0087 C   0  0  0  0  0  0  0  0  0  0  0  0
   -0.4772    1.3140   -0.0455 C   0  0  0  0  0  0  0  0  0  0  0  0
    0.9013    1.0847   -0.0804 C   0  0  0  0  0  0  0  0  0  0  0  0
    1.8387    2.2234   -0.1581 C   0  0  0  0  0  0  0  0  0  0  0  0
    1.4542    3.3848   -0.2036 O   0  0  0  0  0  0  0  0  0  0  0  0
    2.4729   -0.4100   -0.0730 H   0  0  0  0  0  0  0  0  0  0  0  0
    0.8975   -2.3160    0.0227 H   0  0  0  0  0  0  0  0  0  0  0  0
   -1.5489   -1.9114    0.0661 H   0  0  0  0  0  0  0  0  0  0  0  0
   -2.4301    0.4086    0.0321 H   0  0  0  0  0  0  0  0  0  0  0  0
   -0.8654    2.3303   -0.0633 H   0  0  0  0  0  0  0  0  0  0  0  0
    2.9130    1.9751   -0.1779 H   0  0  0  0  0  0  0  0  0  0  0  0
  1  2  2  0  0  0  0
  1  6  1  0  0  0  0
  1  9  1  0  0  0  0
  2  3  1  0  0  0  0
  2 10  1  0  0  0  0
  3  4  2  0  0  0  0
  3 11  1  0  0  0  0
  4  5  1  0  0  0  0
  4 12  1  0  0  0  0
  5  6  2  0  0  0  0
  5 13  1  0  0  0  0
  6  7  1  0  0  0  0
  7  8  2  0  0  0  0
  7 14  1  0  0  0  0
M  END
$$$$
