
 OpenBabel10082419413D

 24 25  0  0  0  0  0  0  0  0999 V2000
    1.0155    0.0450   -0.1375 O   0  0  0  0  0  0  0  0  0  0  0  0
    2.2410   -0.0119   -0.0957 C   0  0  0  0  0  0  0  0  0  0  0  0
    2.9737   -0.7705   -1.1433 C   0  0  0  0  0  0  0  0  0  0  0  0
    2.4579   -0.7924   -2.4436 C   0  0  0  0  0  0  0  0  0  0  0  0
    3.1362   -1.4805   -3.4511 C   0  0  0  0  0  0  0  0  0  0  0  0
    4.3227   -2.1548   -3.1598 C   0  0  0  0  0  0  0  0  0  0  0  0
    4.8255   -2.1570   -1.8597 C   0  0  0  0  0  0  0  0  0  0  0  0
    4.1475   -1.4761   -0.8478 C   0  0  0  0  0  0  0  0  0  0  0  0
    2.9708    0.6805    0.9995 C   0  0  0  0  0  0  0  0  0  0  0  0
    2.3706    0.7631    2.2609 C   0  0  0  0  0  0  0  0  0  0  0  0
    3.0377    1.3967    3.3111 C   0  0  0  0  0  0  0  0  0  0  0  0
    4.2987    1.9559    3.1016 C   0  0  0  0  0  0  0  0  0  0  0  0
    4.8909    1.8953    1.8406 C   0  0  0  0  0  0  0  0  0  0  0  0
    4.2244    1.2692    0.7863 C   0  0  0  0  0  0  0  0  0  0  0  0
    1.5315   -0.2698   -2.6740 H   0  0  0  0  0  0  0  0  0  0  0  0
    2.7381   -1.4921   -4.4628 H   0  0  0  0  0  0  0  0  0  0  0  0
    4.8512   -2.6875   -3.9469 H   0  0  0  0  0  0  0  0  0  0  0  0
    5.7442   -2.6927   -1.6322 H   0  0  0  0  0  0  0  0  0  0  0  0
    4.5418   -1.5106    0.1645 H   0  0  0  0  0  0  0  0  0  0  0  0
    1.3859    0.3313    2.4279 H   0  0  0  0  0  0  0  0  0  0  0  0
    2.5726    1.4566    4.2919 H   0  0  0  0  0  0  0  0  0  0  0  0
    4.8173    2.4487    3.9209 H   0  0  0  0  0  0  0  0  0  0  0  0
    5.8685    2.3417    1.6764 H   0  0  0  0  0  0  0  0  0  0  0  0
    4.6909    1.2562   -0.1953 H   0  0  0  0  0  0  0  0  0  0  0  0
  1  2  2  0  0  0  0
  2  3  1  0  0  0  0
  2  9  1  0  0  0  0
  3  4  1  0  0  0  0
  3  8  2  0  0  0  0
  4  5  2  0  0  0  0
  4 15  1  0  0  0  0
  5  6  1  0  0  0  0
  5 16  1  0  0  0  0
  6  7  2  0  0  0  0
  6 17  1  0  0  0  0
  7  8  1  0  0  0  0
  7 18  1  0  0  0  0
  8 19  1  0  0  0  0
  9 10  1  0  0  0  0
  9 14  2  0  0  0  0
 10 11  2  0  0  0  0
 10 20  1  0  0  0  0
 11 12  1  0  0  0  0
 11 21  1  0  0  0  0
 12 13  2  0  0  0  0
 12 22  1  0  0  0  0
 13 14  1  0  0  0  0
 13 23  1  0  0  0  0
 14 24  1  0  0  0  0
M  END
$$$$
