
 OpenBabel10142400353D

 16 16  0  0  0  0  0  0  0  0999 V2000
    1.3770   -0.1859    0.0183 C   0  0  0  0  0  0  0  0  0  0  0  0
    0.8616    1.1119    0.0330 C   0  0  0  0  0  0  0  0  0  0  0  0
   -0.5158    1.3163   -0.0015 C   0  0  0  0  0  0  0  0  0  0  0  0
   -1.3805    0.2241   -0.0473 C   0  0  0  0  0  0  0  0  0  0  0  0
   -0.8662   -1.0737   -0.0673 C   0  0  0  0  0  0  0  0  0  0  0  0
    0.5189   -1.2947   -0.0499 C   0  0  0  0  0  0  0  0  0  0  0  0
    1.0548   -2.7033   -0.0196 C   0  0  0  0  0  0  0  0  0  0  0  0
    2.2839   -2.8189   -0.7272 O   0  0  0  0  0  0  0  0  0  0  0  0
    2.4542   -0.3294    0.0670 H   0  0  0  0  0  0  0  0  0  0  0  0
    1.5362    1.9631    0.0806 H   0  0  0  0  0  0  0  0  0  0  0  0
   -0.9182    2.3264    0.0171 H   0  0  0  0  0  0  0  0  0  0  0  0
   -2.4555    0.3830   -0.0595 H   0  0  0  0  0  0  0  0  0  0  0  0
   -1.5564   -1.9137   -0.0912 H   0  0  0  0  0  0  0  0  0  0  0  0
    0.3481   -3.3931   -0.4914 H   0  0  0  0  0  0  0  0  0  0  0  0
    1.2135   -3.0214    1.0154 H   0  0  0  0  0  0  0  0  0  0  0  0
    2.1738   -2.3281   -1.5597 H   0  0  0  0  0  0  0  0  0  0  0  0
  1  2  1  0  0  0  0
  1  6  2  0  0  0  0
  1  9  1  0  0  0  0
  2  3  2  0  0  0  0
  2 10  1  0  0  0  0
  3  4  1  0  0  0  0
  3 11  1  0  0  0  0
  4  5  2  0  0  0  0
  4 12  1  0  0  0  0
  5  6  1  0  0  0  0
  5 13  1  0  0  0  0
  6  7  1  0  0  0  0
  7  8  1  0  0  0  0
  7 14  1  0  0  0  0
  7 15  1  0  0  0  0
  8 16  1  0  0  0  0
M  END
$$$$
