
 OpenBabel10132422313D

 23 23  0  0  0  0  0  0  0  0999 V2000
    0.9658   -0.0407   -0.0094 O   0  0  0  0  0  0  0  0  0  0  0  0
    2.1960    0.0073    0.0278 C   0  0  0  0  0  0  0  0  0  0  0  0
    2.9525    0.7463    1.1128 C   0  0  0  0  0  0  0  0  0  0  0  0
    1.9980    1.4029    2.1111 C   0  0  0  0  0  0  0  0  0  0  0  0
    2.7307    2.1143    3.2221 C   0  0  0  0  0  0  0  0  0  0  0  0
    3.5657    3.2072    2.9505 C   0  0  0  0  0  0  0  0  0  0  0  0
    4.2888    3.8168    3.9766 C   0  0  0  0  0  0  0  0  0  0  0  0
    4.1671    3.3564    5.2875 C   0  0  0  0  0  0  0  0  0  0  0  0
    3.3056    2.3002    5.5754 C   0  0  0  0  0  0  0  0  0  0  0  0
    2.5901    1.6831    4.5485 C   0  0  0  0  0  0  0  0  0  0  0  0
    3.0258   -0.6771   -1.0250 C   0  0  0  0  0  0  0  0  0  0  0  0
    3.5844    1.4984    0.6264 H   0  0  0  0  0  0  0  0  0  0  0  0
    3.6059    0.0299    1.6249 H   0  0  0  0  0  0  0  0  0  0  0  0
    1.3396    0.6337    2.5366 H   0  0  0  0  0  0  0  0  0  0  0  0
    1.3387    2.1168    1.6024 H   0  0  0  0  0  0  0  0  0  0  0  0
    3.6653    3.5871    1.9365 H   0  0  0  0  0  0  0  0  0  0  0  0
    4.9510    4.6492    3.7536 H   0  0  0  0  0  0  0  0  0  0  0  0
    4.7391    3.8242    6.0830 H   0  0  0  0  0  0  0  0  0  0  0  0
    3.1965    1.9508    6.5989 H   0  0  0  0  0  0  0  0  0  0  0  0
    1.9234    0.8581    4.7909 H   0  0  0  0  0  0  0  0  0  0  0  0
    2.3662   -1.1617   -1.7499 H   0  0  0  0  0  0  0  0  0  0  0  0
    3.6589   -1.4363   -0.5586 H   0  0  0  0  0  0  0  0  0  0  0  0
    3.6394    0.0619   -1.5463 H   0  0  0  0  0  0  0  0  0  0  0  0
  1  2  2  0  0  0  0
  2  3  1  0  0  0  0
  2 11  1  0  0  0  0
  3  4  1  0  0  0  0
  3 12  1  0  0  0  0
  3 13  1  0  0  0  0
  4  5  1  0  0  0  0
  4 14  1  0  0  0  0
  4 15  1  0  0  0  0
  5  6  1  0  0  0  0
  5 10  2  0  0  0  0
  6  7  2  0  0  0  0
  6 16  1  0  0  0  0
  7  8  1  0  0  0  0
  7 17  1  0  0  0  0
  8  9  2  0  0  0  0
  8 18  1  0  0  0  0
  9 10  1  0  0  0  0
  9 19  1  0  0  0  0
 10 20  1  0  0  0  0
 11 21  1  0  0  0  0
 11 22  1  0  0  0  0
 11 23  1  0  0  0  0
M  END
$$$$
