
 OpenBabel12012401103D

 21 21  0  0  0  0  0  0  0  0999 V2000
    1.3942   -0.2598   -0.0875 C   0  0  0  0  0  0  0  0  0  0  0  0
    0.5019   -1.3295   -0.0076 C   0  0  0  0  0  0  0  0  0  0  0  0
   -0.8712   -1.0927    0.0306 C   0  0  0  0  0  0  0  0  0  0  0  0
   -1.3535    0.2146   -0.0040 C   0  0  0  0  0  0  0  0  0  0  0  0
   -0.4632    1.2853   -0.0816 C   0  0  0  0  0  0  0  0  0  0  0  0
    0.9192    1.0587   -0.1302 C   0  0  0  0  0  0  0  0  0  0  0  0
    1.8781    2.2165   -0.2254 C   0  0  0  0  0  0  0  0  0  0  0  0
    2.7514    2.2505    0.9106 O   0  0  0  0  0  0  0  0  0  0  0  0
    2.2682    2.9210    1.9890 C   0  0  0  0  0  0  0  0  0  0  0  0
    1.1778    3.4691    2.0659 O   0  0  0  0  0  0  0  0  0  0  0  0
    3.2707    2.9100    3.1054 C   0  0  0  0  0  0  0  0  0  0  0  0
    2.4635   -0.4565   -0.1114 H   0  0  0  0  0  0  0  0  0  0  0  0
    0.8774   -2.3489    0.0269 H   0  0  0  0  0  0  0  0  0  0  0  0
   -1.5656   -1.9258    0.0927 H   0  0  0  0  0  0  0  0  0  0  0  0
   -2.4238    0.4014    0.0351 H   0  0  0  0  0  0  0  0  0  0  0  0
   -0.8538    2.3013   -0.0922 H   0  0  0  0  0  0  0  0  0  0  0  0
    1.3611    3.1755   -0.3569 H   0  0  0  0  0  0  0  0  0  0  0  0
    2.5036    2.0856   -1.1159 H   0  0  0  0  0  0  0  0  0  0  0  0
    4.2342    2.5233    2.7610 H   0  0  0  0  0  0  0  0  0  0  0  0
    2.9047    2.2793    3.9182 H   0  0  0  0  0  0  0  0  0  0  0  0
    3.4251    3.9352    3.4544 H   0  0  0  0  0  0  0  0  0  0  0  0
  1  2  2  0  0  0  0
  1  6  1  0  0  0  0
  1 12  1  0  0  0  0
  2  3  1  0  0  0  0
  2 13  1  0  0  0  0
  3  4  2  0  0  0  0
  3 14  1  0  0  0  0
  4  5  1  0  0  0  0
  4 15  1  0  0  0  0
  5  6  2  0  0  0  0
  5 16  1  0  0  0  0
  6  7  1  0  0  0  0
  7  8  1  0  0  0  0
  7 17  1  0  0  0  0
  7 18  1  0  0  0  0
  8  9  1  0  0  0  0
  9 10  2  0  0  0  0
  9 11  1  0  0  0  0
 11 19  1  0  0  0  0
 11 20  1  0  0  0  0
 11 21  1  0  0  0  0
M  END
$$$$
