
 OpenBabel08062510263D

 38 37  0  0  0  0  0  0  0  0999 V2000
    0.9329    0.1993    0.0960 C   0  0  0  0  0  0  0  0  0  0  0  0
    2.4396    0.1086    0.0119 C   0  0  0  0  0  0  0  0  0  0  0  0
    3.0787   -0.5851   -0.9564 C   0  0  0  0  0  0  0  0  0  0  0  0
    2.4116   -1.3603   -2.0705 C   0  0  0  0  0  0  0  0  0  0  0  0
    3.2026   -1.4015   -3.3865 C   0  0  0  0  0  0  0  0  0  0  0  0
    2.4205   -2.1340   -4.4654 C   0  0  0  0  0  0  0  0  0  0  0  0
    2.5414   -3.4625   -4.6270 C   0  0  0  0  0  0  0  0  0  0  0  0
    1.4941   -1.3300   -5.2487 C   0  0  0  0  0  0  0  0  0  0  0  0
    1.1545   -1.5497   -6.5260 C   0  0  0  0  0  0  0  0  0  0  0  0
    3.2162    0.8393    1.1126 C   0  0  0  0  0  0  0  0  0  0  0  0
    2.4790    0.8373    2.4656 C   0  0  0  0  0  0  0  0  0  0  0  0
    3.1469    1.5463    3.6135 C   0  0  0  0  0  0  0  0  0  0  0  0
    2.5538    1.6705    4.8193 C   0  0  0  0  0  0  0  0  0  0  0  0
    1.2059    1.1290    5.2009 C   0  0  0  0  0  0  0  0  0  0  0  0
    3.2665    2.4171    5.8915 C   0  0  0  0  0  0  0  0  0  0  0  0
    2.7977    2.5725    7.0110 O   0  0  0  0  0  0  0  0  0  0  0  0
    0.4042   -0.3095   -0.7101 H   0  0  0  0  0  0  0  0  0  0  0  0
    0.6181    1.2472    0.0799 H   0  0  0  0  0  0  0  0  0  0  0  0
    0.5751   -0.2691    1.0188 H   0  0  0  0  0  0  0  0  0  0  0  0
    4.1675   -0.6288   -0.9405 H   0  0  0  0  0  0  0  0  0  0  0  0
    1.4301   -0.9356   -2.2963 H   0  0  0  0  0  0  0  0  0  0  0  0
    2.2508   -2.3858   -1.7156 H   0  0  0  0  0  0  0  0  0  0  0  0
    4.1663   -1.9010   -3.2213 H   0  0  0  0  0  0  0  0  0  0  0  0
    3.4442   -0.3849   -3.7237 H   0  0  0  0  0  0  0  0  0  0  0  0
    3.2169   -4.0458   -4.0094 H   0  0  0  0  0  0  0  0  0  0  0  0
    1.9578   -4.0125   -5.3586 H   0  0  0  0  0  0  0  0  0  0  0  0
    1.0614   -0.4670   -4.7444 H   0  0  0  0  0  0  0  0  0  0  0  0
    1.5549   -2.3777   -7.1008 H   0  0  0  0  0  0  0  0  0  0  0  0
    0.4570   -0.8886   -7.0312 H   0  0  0  0  0  0  0  0  0  0  0  0
    3.3816    1.8752    0.7916 H   0  0  0  0  0  0  0  0  0  0  0  0
    4.2061    0.3825    1.2440 H   0  0  0  0  0  0  0  0  0  0  0  0
    2.2953   -0.2036    2.7592 H   0  0  0  0  0  0  0  0  0  0  0  0
    1.5113    1.3345    2.3247 H   0  0  0  0  0  0  0  0  0  0  0  0
    4.1283    1.9780    3.4282 H   0  0  0  0  0  0  0  0  0  0  0  0
    0.7109    0.5990    4.3817 H   0  0  0  0  0  0  0  0  0  0  0  0
    0.5384    1.9403    5.5064 H   0  0  0  0  0  0  0  0  0  0  0  0
    1.2993    0.4201    6.0294 H   0  0  0  0  0  0  0  0  0  0  0  0
    4.2541    2.8271    5.6224 H   0  0  0  0  0  0  0  0  0  0  0  0
  1  2  1  0  0  0  0
  1 17  1  0  0  0  0
  1 18  1  0  0  0  0
  1 19  1  0  0  0  0
  2  3  2  0  0  0  0
  2 10  1  0  0  0  0
  3  4  1  0  0  0  0
  3 20  1  0  0  0  0
  4  5  1  0  0  0  0
  4 21  1  0  0  0  0
  4 22  1  0  0  0  0
  5  6  1  0  0  0  0
  5 23  1  0  0  0  0
  5 24  1  0  0  0  0
  6  7  2  0  0  0  0
  6  8  1  0  0  0  0
  7 25  1  0  0  0  0
  7 26  1  0  0  0  0
  8  9  2  0  0  0  0
  8 27  1  0  0  0  0
  9 28  1  0  0  0  0
  9 29  1  0  0  0  0
 10 11  1  0  0  0  0
 10 30  1  0  0  0  0
 10 31  1  0  0  0  0
 11 12  1  0  0  0  0
 11 32  1  0  0  0  0
 11 33  1  0  0  0  0
 12 13  2  0  0  0  0
 12 34  1  0  0  0  0
 13 14  1  0  0  0  0
 13 15  1  0  0  0  0
 14 35  1  0  0  0  0
 14 36  1  0  0  0  0
 14 37  1  0  0  0  0
 15 16  2  0  0  0  0
 15 38  1  0  0  0  0
M  END
$$$$
