
 OpenBabel01032512323D

 34 34  0  0  0  0  0  0  0  0999 V2000
    0.9911   -0.0731    0.1373 O   0  0  0  0  0  0  0  0  0  0  0  0
    2.2178    0.0223    0.2031 C   0  0  0  0  0  0  0  0  0  0  0  0
    3.0518   -1.0632    0.8497 C   0  0  0  0  0  0  0  0  0  0  0  0
    2.6507   -2.3493    0.6371 C   0  0  0  0  0  0  0  0  0  0  0  0
    3.1320   -3.5071    1.4863 C   0  0  0  0  0  0  0  0  0  0  0  0
    3.7848   -3.0870    2.7916 C   0  0  0  0  0  0  0  0  0  0  0  0
    4.7706   -1.9681    2.5272 C   0  0  0  0  0  0  0  0  0  0  0  0
    4.0987   -0.6952    1.9308 C   0  0  0  0  0  0  0  0  0  0  0  0
    5.2890    0.1573    1.4338 C   0  0  0  0  0  0  0  0  0  0  0  0
    3.3892    0.0779    3.0632 C   0  0  0  0  0  0  0  0  0  0  0  0
    1.6506   -2.8096   -0.4020 C   0  0  0  0  0  0  0  0  0  0  0  0
    2.8926    1.2547   -0.2850 C   0  0  0  0  0  0  0  0  0  0  0  0
    2.1928    2.3926   -0.4242 C   0  0  0  0  0  0  0  0  0  0  0  0
    2.7959    3.7093   -0.7866 C   0  0  0  0  0  0  0  0  0  0  0  0
    3.8361   -4.1076    0.8929 H   0  0  0  0  0  0  0  0  0  0  0  0
    2.2861   -4.1605    1.7349 H   0  0  0  0  0  0  0  0  0  0  0  0
    4.3012   -3.9460    3.2367 H   0  0  0  0  0  0  0  0  0  0  0  0
    3.0245   -2.7687    3.5154 H   0  0  0  0  0  0  0  0  0  0  0  0
    5.5355   -2.3452    1.8317 H   0  0  0  0  0  0  0  0  0  0  0  0
    5.2988   -1.7230    3.4566 H   0  0  0  0  0  0  0  0  0  0  0  0
    5.7083   -0.2421    0.5028 H   0  0  0  0  0  0  0  0  0  0  0  0
    6.0991    0.1659    2.1771 H   0  0  0  0  0  0  0  0  0  0  0  0
    5.0291    1.2079    1.2870 H   0  0  0  0  0  0  0  0  0  0  0  0
    2.5505   -0.4898    3.4794 H   0  0  0  0  0  0  0  0  0  0  0  0
    2.9912    1.0359    2.7097 H   0  0  0  0  0  0  0  0  0  0  0  0
    4.0815    0.3012    3.8826 H   0  0  0  0  0  0  0  0  0  0  0  0
    1.4295   -2.0650   -1.1686 H   0  0  0  0  0  0  0  0  0  0  0  0
    0.7136   -3.1069    0.0825 H   0  0  0  0  0  0  0  0  0  0  0  0
    2.0479   -3.6820   -0.9329 H   0  0  0  0  0  0  0  0  0  0  0  0
    3.9475    1.2178   -0.5082 H   0  0  0  0  0  0  0  0  0  0  0  0
    1.1211    2.3967   -0.2225 H   0  0  0  0  0  0  0  0  0  0  0  0
    3.8515    3.7646   -0.5028 H   0  0  0  0  0  0  0  0  0  0  0  0
    2.2743    4.5124   -0.2556 H   0  0  0  0  0  0  0  0  0  0  0  0
    2.7028    3.8931   -1.8614 H   0  0  0  0  0  0  0  0  0  0  0  0
  1  2  2  0  0  0  0
  2  3  1  0  0  0  0
  2 12  1  0  0  0  0
  3  4  2  0  0  0  0
  3  8  1  0  0  0  0
  4  5  1  0  0  0  0
  4 11  1  0  0  0  0
  5  6  1  0  0  0  0
  5 15  1  0  0  0  0
  5 16  1  0  0  0  0
  6  7  1  0  0  0  0
  6 17  1  0  0  0  0
  6 18  1  0  0  0  0
  7  8  1  0  0  0  0
  7 19  1  0  0  0  0
  7 20  1  0  0  0  0
  8  9  1  0  0  0  0
  8 10  1  0  0  0  0
  9 21  1  0  0  0  0
  9 22  1  0  0  0  0
  9 23  1  0  0  0  0
 10 24  1  0  0  0  0
 10 25  1  0  0  0  0
 10 26  1  0  0  0  0
 11 27  1  0  0  0  0
 11 28  1  0  0  0  0
 11 29  1  0  0  0  0
 12 13  2  0  0  0  0
 12 30  1  0  0  0  0
 13 14  1  0  0  0  0
 13 31  1  0  0  0  0
 14 32  1  0  0  0  0
 14 33  1  0  0  0  0
 14 34  1  0  0  0  0
M  END
$$$$
