
 OpenBabel01102518013D

 28 28  0  0  1  0  0  0  0  0999 V2000
    0.8728   -0.1886    0.0090 C   0  0  0  0  0  0  0  0  0  0  0  0
    2.3879   -0.0831   -0.0224 C   0  0  0  0  0  0  0  0  0  0  0  0
    2.9186    0.6761    1.1927 C   0  0  0  0  0  0  0  0  0  0  0  0
    4.4410    0.7740    1.1508 C   0  0  0  0  0  0  0  0  0  0  0  0
    4.9940    1.5283    2.3602 C   0  0  0  0  0  0  0  0  0  0  0  0
    6.4874    1.6071    2.2812 C   0  0  3  0  0  0  0  0  0  0  0  0
    7.0941    2.2944    3.3819 O   0  0  0  0  0  0  0  0  0  0  0  0
    7.2523    2.9013    2.0896 C   0  0  3  0  0  0  0  0  0  0  0  0
    6.5517    4.1397    1.7277 C   0  0  0  0  0  0  0  0  0  0  0  0
    6.2105    5.1139    2.5878 C   0  0  0  0  0  0  0  0  0  0  0  0
    5.5009    6.3159    2.1180 C   0  0  0  0  0  0  0  0  0  0  0  0
    5.1847    7.2123    2.8929 O   0  0  0  0  0  0  0  0  0  0  0  0
    0.5129   -0.7348   -0.8682 H   0  0  0  0  0  0  0  0  0  0  0  0
    0.4117    0.8041    0.0053 H   0  0  0  0  0  0  0  0  0  0  0  0
    0.5364   -0.7213    0.9041 H   0  0  0  0  0  0  0  0  0  0  0  0
    2.6952    0.4264   -0.9433 H   0  0  0  0  0  0  0  0  0  0  0  0
    2.8196   -1.0905   -0.0503 H   0  0  0  0  0  0  0  0  0  0  0  0
    2.6060    0.1671    2.1125 H   0  0  0  0  0  0  0  0  0  0  0  0
    2.4861    1.6835    1.2161 H   0  0  0  0  0  0  0  0  0  0  0  0
    4.7548    1.2758    0.2268 H   0  0  0  0  0  0  0  0  0  0  0  0
    4.8746   -0.2341    1.1226 H   0  0  0  0  0  0  0  0  0  0  0  0
    4.7105    1.0054    3.2808 H   0  0  0  0  0  0  0  0  0  0  0  0
    4.5425    2.5250    2.4140 H   0  0  0  0  0  0  0  0  0  0  0  0
    6.9484    0.6748    1.9788 H   0  0  0  0  0  0  0  0  0  0  0  0
    8.2348    2.8112    1.6338 H   0  0  0  0  0  0  0  0  0  0  0  0
    6.2998    4.2417    0.6755 H   0  0  0  0  0  0  0  0  0  0  0  0
    6.4276    5.0613    3.6483 H   0  0  0  0  0  0  0  0  0  0  0  0
    5.2738    6.3656    1.0419 H   0  0  0  0  0  0  0  0  0  0  0  0
  1  2  1  0  0  0  0
  1 13  1  0  0  0  0
  1 14  1  0  0  0  0
  1 15  1  0  0  0  0
  2  3  1  0  0  0  0
  2 16  1  0  0  0  0
  2 17  1  0  0  0  0
  3  4  1  0  0  0  0
  3 18  1  0  0  0  0
  3 19  1  0  0  0  0
  4  5  1  0  0  0  0
  4 20  1  0  0  0  0
  4 21  1  0  0  0  0
  5  6  1  0  0  0  0
  5 22  1  0  0  0  0
  5 23  1  0  0  0  0
  6  7  1  0  0  0  0
  6  8  1  0  0  0  0
  6 24  1  0  0  0  0
  7  8  1  0  0  0  0
  8  9  1  0  0  0  0
  8 25  1  0  0  0  0
  9 10  2  0  0  0  0
  9 26  1  0  0  0  0
 10 11  1  0  0  0  0
 10 27  1  0  0  0  0
 11 12  2  0  0  0  0
 11 28  1  0  0  0  0
M  END
$$$$
