
 OpenBabel09012417043D

 47 47  0  0  0  0  0  0  0  0999 V2000
    5.4910    1.2794   -5.1407 C   0  0  0  0  0  0  0  0  0  0  0  0
    4.7704    1.6678   -3.8635 C   0  0  0  0  0  0  0  0  0  0  0  0
    5.3074    2.9017   -3.4049 O   0  0  0  0  0  0  0  0  0  0  0  0
    4.6353    3.3598   -2.2381 C   0  0  0  0  0  0  0  0  0  0  0  0
    4.9596    2.6387   -1.0506 O   0  0  0  0  0  0  0  0  0  0  0  0
    6.3222    2.7673   -0.6500 C   0  0  0  0  0  0  0  0  0  0  0  0
    6.7402    4.2247   -0.3058 C   0  0  0  0  0  0  0  0  0  0  0  0
    6.0008    4.9005    0.8674 C   0  0  0  0  0  0  0  0  0  0  0  0
    4.5625    5.3459    0.5848 C   0  0  0  0  0  0  0  0  0  0  0  0
    3.6862    5.4702    1.8367 C   0  0  0  0  0  0  0  0  0  0  0  0
    3.4992    4.1739    2.6429 C   0  0  0  0  0  0  0  0  0  0  0  0
    2.9010    2.9999    1.8531 C   0  0  0  0  0  0  0  0  0  0  0  0
    3.0050    1.6664    2.5951 C   0  0  0  0  0  0  0  0  0  0  0  0
    4.4263    1.0721    2.6172 C   0  0  0  0  0  0  0  0  0  0  0  0
    4.7455    0.2337    1.3649 C   0  0  0  0  0  0  0  0  0  0  0  0
    6.0952    0.4337    0.6473 C   0  0  0  0  0  0  0  0  0  0  0  0
    6.6942    1.8416    0.5382 C   0  0  0  0  0  0  0  0  0  0  0  0
    5.1718    0.2879   -5.4733 H   0  0  0  0  0  0  0  0  0  0  0  0
    6.5736    1.2726   -4.9860 H   0  0  0  0  0  0  0  0  0  0  0  0
    5.2838    2.0040   -5.9347 H   0  0  0  0  0  0  0  0  0  0  0  0
    4.9144    0.8995   -3.0972 H   0  0  0  0  0  0  0  0  0  0  0  0
    3.6989    1.7797   -4.0670 H   0  0  0  0  0  0  0  0  0  0  0  0
    3.5468    3.3208   -2.3930 H   0  0  0  0  0  0  0  0  0  0  0  0
    4.8685    4.4259   -2.1382 H   0  0  0  0  0  0  0  0  0  0  0  0
    6.9337    2.4316   -1.4990 H   0  0  0  0  0  0  0  0  0  0  0  0
    6.6697    4.8682   -1.1876 H   0  0  0  0  0  0  0  0  0  0  0  0
    7.8082    4.1996   -0.0489 H   0  0  0  0  0  0  0  0  0  0  0  0
    6.5724    5.7945    1.1482 H   0  0  0  0  0  0  0  0  0  0  0  0
    6.0444    4.2590    1.7466 H   0  0  0  0  0  0  0  0  0  0  0  0
    4.0522    4.6813   -0.1070 H   0  0  0  0  0  0  0  0  0  0  0  0
    4.5968    6.3208    0.0815 H   0  0  0  0  0  0  0  0  0  0  0  0
    2.6986    5.8405    1.5323 H   0  0  0  0  0  0  0  0  0  0  0  0
    4.1130    6.2331    2.4980 H   0  0  0  0  0  0  0  0  0  0  0  0
    2.8327    4.3931    3.4863 H   0  0  0  0  0  0  0  0  0  0  0  0
    4.4435    3.8951    3.0984 H   0  0  0  0  0  0  0  0  0  0  0  0
    3.3729    2.8924    0.8752 H   0  0  0  0  0  0  0  0  0  0  0  0
    1.8405    3.2222    1.6587 H   0  0  0  0  0  0  0  0  0  0  0  0
    2.3157    0.9458    2.1354 H   0  0  0  0  0  0  0  0  0  0  0  0
    2.6595    1.8118    3.6242 H   0  0  0  0  0  0  0  0  0  0  0  0
    4.4806    0.4063    3.4900 H   0  0  0  0  0  0  0  0  0  0  0  0
    5.1651    1.8483    2.8140 H   0  0  0  0  0  0  0  0  0  0  0  0
    3.9388    0.3083    0.6286 H   0  0  0  0  0  0  0  0  0  0  0  0
    4.7331   -0.8183    1.6922 H   0  0  0  0  0  0  0  0  0  0  0  0
    6.0389   -0.0311   -0.3451 H   0  0  0  0  0  0  0  0  0  0  0  0
    6.8291   -0.1678    1.2044 H   0  0  0  0  0  0  0  0  0  0  0  0
    7.7832    1.7102    0.4716 H   0  0  0  0  0  0  0  0  0  0  0  0
    6.5566    2.3469    1.4878 H   0  0  0  0  0  0  0  0  0  0  0  0
  1  2  1  0  0  0  0
  1 18  1  0  0  0  0
  1 19  1  0  0  0  0
  1 20  1  0  0  0  0
  2  3  1  0  0  0  0
  2 21  1  0  0  0  0
  2 22  1  0  0  0  0
  3  4  1  0  0  0  0
  4  5  1  0  0  0  0
  4 23  1  0  0  0  0
  4 24  1  0  0  0  0
  5  6  1  0  0  0  0
  6  7  1  0  0  0  0
  6 17  1  0  0  0  0
  6 25  1  0  0  0  0
  7  8  1  0  0  0  0
  7 26  1  0  0  0  0
  7 27  1  0  0  0  0
  8  9  1  0  0  0  0
  8 28  1  0  0  0  0
  8 29  1  0  0  0  0
  9 10  1  0  0  0  0
  9 30  1  0  0  0  0
  9 31  1  0  0  0  0
 10 11  1  0  0  0  0
 10 32  1  0  0  0  0
 10 33  1  0  0  0  0
 11 12  1  0  0  0  0
 11 34  1  0  0  0  0
 11 35  1  0  0  0  0
 12 13  1  0  0  0  0
 12 36  1  0  0  0  0
 12 37  1  0  0  0  0
 13 14  1  0  0  0  0
 13 38  1  0  0  0  0
 13 39  1  0  0  0  0
 14 15  1  0  0  0  0
 14 40  1  0  0  0  0
 14 41  1  0  0  0  0
 15 16  1  0  0  0  0
 15 42  1  0  0  0  0
 15 43  1  0  0  0  0
 16 17  1  0  0  0  0
 16 44  1  0  0  0  0
 16 45  1  0  0  0  0
 17 46  1  0  0  0  0
 17 47  1  0  0  0  0
M  END
$$$$
