
 OpenBabel01032520573D

 30 31  0  0  1  0  0  0  0  0999 V2000
    0.8928   -0.0776   -0.0024 C   0  0  0  0  0  0  0  0  0  0  0  0
    2.4357   -0.0432   -0.0342 C   0  0  0  0  0  0  0  0  0  0  0  0
    3.0648   -1.1504   -0.9118 C   0  0  3  0  0  0  0  0  0  0  0  0
    2.5704   -0.8102   -2.3367 C   0  0  0  0  0  0  0  0  0  0  0  0
    2.5329    0.7275   -2.3333 C   0  0  0  0  0  0  0  0  0  0  0  0
    3.0706    1.0809   -0.9183 C   0  0  3  0  0  0  0  0  0  0  0  0
    4.5985    0.7270   -0.8999 C   0  0  1  0  0  0  0  0  0  0  0  0
    4.5724   -0.8213   -0.8799 C   0  0  0  0  0  0  0  0  0  0  0  0
    5.4544    1.3778   -2.0086 C   0  0  0  0  0  0  0  0  0  0  0  0
    5.4741    2.6414   -1.9919 O   0  0  0  0  0  0  0  0  0  0  0  0
    6.0507    0.5901   -2.7946 O   0  5  0  0  0  0  0  0  0  0  0  0
    2.7414    2.5008   -0.4875 C   0  0  0  0  0  0  0  0  0  0  0  0
    2.8893   -0.0642    1.4391 C   0  0  0  0  0  0  0  0  0  0  0  0
    0.4155   -0.0647   -0.9845 H   0  0  0  0  0  0  0  0  0  0  0  0
    0.4973    0.7813    0.5515 H   0  0  0  0  0  0  0  0  0  0  0  0
    0.5432   -0.9862    0.5017 H   0  0  0  0  0  0  0  0  0  0  0  0
    2.8435   -2.1768   -0.6107 H   0  0  0  0  0  0  0  0  0  0  0  0
    1.5731   -1.2233   -2.5253 H   0  0  0  0  0  0  0  0  0  0  0  0
    3.2348   -1.1991   -3.1137 H   0  0  0  0  0  0  0  0  0  0  0  0
    1.5111    1.0909   -2.4857 H   0  0  0  0  0  0  0  0  0  0  0  0
    3.1350    1.1473   -3.1455 H   0  0  0  0  0  0  0  0  0  0  0  0
    5.0480    1.0768    0.0395 H   0  0  0  0  0  0  0  0  0  0  0  0
    5.0332   -1.1980    0.0404 H   0  0  0  0  0  0  0  0  0  0  0  0
    5.1022   -1.2979   -1.7097 H   0  0  0  0  0  0  0  0  0  0  0  0
    1.6598    2.6667   -0.4590 H   0  0  0  0  0  0  0  0  0  0  0  0
    3.1577    3.2403   -1.1768 H   0  0  0  0  0  0  0  0  0  0  0  0
    3.1370    2.7134    0.5108 H   0  0  0  0  0  0  0  0  0  0  0  0
    2.5167   -0.9654    1.9397 H   0  0  0  0  0  0  0  0  0  0  0  0
    2.4892    0.8027    1.9785 H   0  0  0  0  0  0  0  0  0  0  0  0
    3.9711   -0.0504    1.5848 H   0  0  0  0  0  0  0  0  0  0  0  0
  1  2  1  0  0  0  0
  1 14  1  0  0  0  0
  1 15  1  0  0  0  0
  1 16  1  0  0  0  0
  2  3  1  0  0  0  0
  2  6  1  0  0  0  0
  2 13  1  0  0  0  0
  3  4  1  0  0  0  0
  3  8  1  0  0  0  0
  3 17  1  0  0  0  0
  4  5  1  0  0  0  0
  4 18  1  0  0  0  0
  4 19  1  0  0  0  0
  5  6  1  0  0  0  0
  5 20  1  0  0  0  0
  5 21  1  0  0  0  0
  6  7  1  0  0  0  0
  6 12  1  0  0  0  0
  7  8  1  0  0  0  0
  7  9  1  0  0  0  0
  7 22  1  1  0  0  0
  8 23  1  0  0  0  0
  8 24  1  0  0  0  0
  9 10  2  0  0  0  0
  9 11  1  0  0  0  0
 12 25  1  0  0  0  0
 12 26  1  0  0  0  0
 12 27  1  0  0  0  0
 13 28  1  0  0  0  0
 13 29  1  0  0  0  0
 13 30  1  0  0  0  0
M  CHG  1  11  -1
M  END
$$$$
