
 OpenBabel12272415293D

  5  4  0  0  0  0  0  0  0  0999 V2000
    0.9342   -0.0190    0.0769 C   0  0  0  0  0  0  0  0  0  0  0  0
    2.8690   -0.0190    0.0768 Br  0  0  0  0  0  0  0  0  0  0  0  0
    0.5955   -0.3296    1.0663 H   0  0  0  0  0  0  0  0  0  0  0  0
    0.5955   -0.7206   -0.6868 H   0  0  0  0  0  0  0  0  0  0  0  0
    0.5954    0.9932   -0.1489 H   0  0  0  0  0  0  0  0  0  0  0  0
  1  2  1  0  0  0  0
  1  3  1  0  0  0  0
  1  4  1  0  0  0  0
  1  5  1  0  0  0  0
M  END
$$$$
