
 OpenBabel09012406563D

 13 12  0  0  0  0  0  0  0  0999 V2000
    0.9256    0.0710    0.0121 C   0  0  0  0  0  0  0  0  0  0  0  0
    2.4458    0.0711    0.0223 C   0  0  0  0  0  0  0  0  0  0  0  0
    3.0198    0.0714   -1.3899 C   0  0  0  0  0  0  0  0  0  0  0  0
    4.5504    0.0712   -1.4672 C   0  0  0  0  0  0  0  0  0  0  0  0
    5.1732    0.0712   -0.3705 O   0  0  0  0  0  0  0  0  0  0  0  0
    5.0067    0.0713   -2.6474 O   0  5  0  0  0  0  0  0  0  0  0  0
    0.5408    0.0707    1.0369 H   0  0  0  0  0  0  0  0  0  0  0  0
    0.5361   -0.8163   -0.4969 H   0  0  0  0  0  0  0  0  0  0  0  0
    0.5361    0.9587   -0.4964 H   0  0  0  0  0  0  0  0  0  0  0  0
    2.8006   -0.8101    0.5696 H   0  0  0  0  0  0  0  0  0  0  0  0
    2.8006    0.9521    0.5701 H   0  0  0  0  0  0  0  0  0  0  0  0
    2.6598    0.9550   -1.9316 H   0  0  0  0  0  0  0  0  0  0  0  0
    2.6598   -0.8120   -1.9319 H   0  0  0  0  0  0  0  0  0  0  0  0
  1  2  1  0  0  0  0
  1  7  1  0  0  0  0
  1  8  1  0  0  0  0
  1  9  1  0  0  0  0
  2  3  1  0  0  0  0
  2 10  1  0  0  0  0
  2 11  1  0  0  0  0
  3  4  1  0  0  0  0
  3 12  1  0  0  0  0
  3 13  1  0  0  0  0
  4  5  2  0  0  0  0
  4  6  1  0  0  0  0
M  CHG  1   6  -1
M  END
$$$$
