
 OpenBabel12272413163D

 29 29  0  0  0  0  0  0  0  0999 V2000
    2.2638    1.6864    0.0709 C   0  0  0  0  0  0  0  0  0  0  0  0
    2.9438    1.2541    1.3595 C   0  0  0  0  0  0  0  0  0  0  0  0
    3.6705   -0.0802    1.1986 C   0  0  0  0  0  0  0  0  0  0  0  0
    4.3641   -0.4952    2.4875 C   0  0  0  0  0  0  0  0  0  0  0  0
    5.0068   -1.7612    2.3171 O   0  0  0  0  0  0  0  0  0  0  0  0
    6.3560   -1.7160    2.5111 C   0  0  0  0  0  0  0  0  0  0  0  0
    7.1407   -1.0006    1.9227 O   0  0  0  0  0  0  0  0  0  0  0  0
    6.6991   -2.6126    3.6463 C   0  0  0  0  0  0  0  0  0  0  0  0
    5.9415   -3.7837    3.8204 C   0  0  0  0  0  0  0  0  0  0  0  0
    6.2312   -4.6601    4.8602 C   0  0  0  0  0  0  0  0  0  0  0  0
    7.2677   -4.3677    5.7383 C   0  0  0  0  0  0  0  0  0  0  0  0
    8.0046   -3.1892    5.5898 C   0  0  0  0  0  0  0  0  0  0  0  0
    7.7579   -2.3082    4.5262 C   0  0  0  0  0  0  0  0  0  0  0  0
    8.3960   -1.0514    4.5473 N   0  0  0  0  0  0  0  0  0  0  0  0
    1.7571    2.6462    0.2139 H   0  0  0  0  0  0  0  0  0  0  0  0
    1.5158    0.9525   -0.2452 H   0  0  0  0  0  0  0  0  0  0  0  0
    2.9927    1.8057   -0.7369 H   0  0  0  0  0  0  0  0  0  0  0  0
    2.1901    1.1763    2.1534 H   0  0  0  0  0  0  0  0  0  0  0  0
    3.6552    2.0301    1.6666 H   0  0  0  0  0  0  0  0  0  0  0  0
    4.4191   -0.0122    0.4010 H   0  0  0  0  0  0  0  0  0  0  0  0
    2.9656   -0.8662    0.8891 H   0  0  0  0  0  0  0  0  0  0  0  0
    3.6220   -0.6132    3.2908 H   0  0  0  0  0  0  0  0  0  0  0  0
    5.0826    0.2627    2.8096 H   0  0  0  0  0  0  0  0  0  0  0  0
    5.1180   -4.0057    3.1466 H   0  0  0  0  0  0  0  0  0  0  0  0
    5.6393   -5.5623    4.9854 H   0  0  0  0  0  0  0  0  0  0  0  0
    7.4912   -5.0475    6.5571 H   0  0  0  0  0  0  0  0  0  0  0  0
    8.7758   -2.9614    6.3219 H   0  0  0  0  0  0  0  0  0  0  0  0
    9.3122   -1.0548    4.9858 H   0  0  0  0  0  0  0  0  0  0  0  0
    8.4132   -0.6011    3.6288 H   0  0  0  0  0  0  0  0  0  0  0  0
  1  2  1  0  0  0  0
  1 15  1  0  0  0  0
  1 16  1  0  0  0  0
  1 17  1  0  0  0  0
  2  3  1  0  0  0  0
  2 18  1  0  0  0  0
  2 19  1  0  0  0  0
  3  4  1  0  0  0  0
  3 20  1  0  0  0  0
  3 21  1  0  0  0  0
  4  5  1  0  0  0  0
  4 22  1  0  0  0  0
  4 23  1  0  0  0  0
  5  6  1  0  0  0  0
  6  7  2  0  0  0  0
  6  8  1  0  0  0  0
  8  9  2  0  0  0  0
  8 13  1  0  0  0  0
  9 10  1  0  0  0  0
  9 24  1  0  0  0  0
 10 11  2  0  0  0  0
 10 25  1  0  0  0  0
 11 12  1  0  0  0  0
 11 26  1  0  0  0  0
 12 13  2  0  0  0  0
 12 27  1  0  0  0  0
 13 14  1  0  0  0  0
 14 28  1  0  0  0  0
 14 29  1  0  0  0  0
M  END
$$$$
