Test
 OpenBabel07242506223D

 27 28  0     0  0  0  0  0  0999 V2000
    0.9728    0.0522    0.0985 C   0  0  0  0  0  0  0  0  0  0  0  0
    2.5127    0.0585    0.0884 C   0  0  0  0  0  0  0  0  0  0  0  0
    2.9769   -1.2265   -0.6221 C   0  0  0  0  0  0  0  0  0  0  0  0
    3.1253    1.3448   -0.4962 C   0  0  0  0  0  0  0  0  0  0  0  0
    2.6465    2.4553    0.4574 C   0  0  0  0  0  0  0  0  0  0  0  0
    2.6795    1.7494    1.8256 C   0  0  0  0  0  0  0  0  0  0  0  0
    3.1390    0.3231    1.4702 C   0  0  0  0  0  0  0  0  0  0  0  0
    2.9345   -0.7538    2.5518 C   0  0  0  0  0  0  0  0  0  0  0  0
    4.6153    0.5360    1.0870 C   0  0  0  0  0  0  0  0  0  0  0  0
    5.4141    0.8485    1.9262 O   0  0  0  0  0  0  0  0  0  0  0  0
    4.6465    1.2129   -0.2960 C   0  0  0  0  0  0  0  0  0  0  0  0
    0.6166   -0.8236    0.6409 H   0  0  0  0  0  0  0  0  0  0  0  0
    0.6024    0.0151   -0.9260 H   0  0  0  0  0  0  0  0  0  0  0  0
    0.6051    0.9554    0.5853 H   0  0  0  0  0  0  0  0  0  0  0  0
    2.6017   -2.0976   -0.0848 H   0  0  0  0  0  0  0  0  0  0  0  0
    4.0664   -1.2543   -0.6436 H   0  0  0  0  0  0  0  0  0  0  0  0
    2.5929   -1.2364   -1.6421 H   0  0  0  0  0  0  0  0  0  0  0  0
    2.9174    1.6368   -1.5255 H   0  0  0  0  0  0  0  0  0  0  0  0
    1.6201    2.7306    0.2150 H   0  0  0  0  0  0  0  0  0  0  0  0
    3.2640    3.3526    0.4970 H   0  0  0  0  0  0  0  0  0  0  0  0
    1.6997    1.7392    2.3031 H   0  0  0  0  0  0  0  0  0  0  0  0
    3.3964    2.2493    2.4769 H   0  0  0  0  0  0  0  0  0  0  0  0
    1.8700   -0.8581    2.7615 H   0  0  0  0  0  0  0  0  0  0  0  0
    3.4548   -0.4527    3.4611 H   0  0  0  0  0  0  0  0  0  0  0  0
    3.3307   -1.7085    2.2058 H   0  0  0  0  0  0  0  0  0  0  0  0
    5.0921    0.5943   -1.0751 H   0  0  0  0  0  0  0  0  0  0  0  0
    5.1766    2.1636   -0.2392 H   0  0  0  0  0  0  0  0  0  0  0  0
  1  2 1.00  0  0  0  0
  1 12 1.00  0  0  0  0
  1 13 1.00  0  0  0  0
  1 14 1.00  0  0  0  0
  2  3 1.00  0  0  0  0
  2  4 1.00  0  0  0  0
  2  7 1.00  0  0  0  0
  3 15 1.00  0  0  0  0
  3 16 1.00  0  0  0  0
  3 17 1.00  0  0  0  0
  4  5 1.00  0  0  0  0
  4 11 1.00  0  0  0  0
  4 18 1.00  0  0  0  0
  5  6 1.00  0  0  0  0
  5 19 1.00  0  0  0  0
  5 20 1.00  0  0  0  0
  6  7 1.00  0  0  0  0
  6 21 1.00  0  0  0  0
  6 22 1.00  0  0  0  0
  7  9 1.00  0  0  0  0
  8  7 1.00  0  0  0  0
  8 23 1.00  0  0  0  0
  8 24 1.00  0  0  0  0
  8 25 1.00  0  0  0  0
  9 10 2.00  0  0  0  0
  9 11 1.00  0  0  0  0
 11 26 1.00  0  0  0  0
 11 27 1.00  0  0  0  0
M  END

