
 OpenBabel09012408033D

 19 18  0  0  0  0  0  0  0  0999 V2000
    0.8903    0.0182    0.0445 C   0  0  0  0  0  0  0  0  0  0  0  0
    2.4097    0.0076    0.0597 C   0  0  0  0  0  0  0  0  0  0  0  0
    2.9508   -0.6873    1.3088 C   0  0  0  0  0  0  0  0  0  0  0  0
    4.4794   -0.6883    1.3107 C   0  0  0  0  0  0  0  0  0  0  0  0
    5.0423   -1.3772    2.5486 C   0  0  0  0  0  0  0  0  0  0  0  0
    6.5733   -1.4131    2.6131 C   0  0  0  0  0  0  0  0  0  0  0  0
    7.1946   -0.8796    1.6543 O   0  0  0  0  0  0  0  0  0  0  0  0
    7.0293   -1.9865    3.6437 O   0  5  0  0  0  0  0  0  0  0  0  0
    0.5241    0.5195   -0.8567 H   0  0  0  0  0  0  0  0  0  0  0  0
    0.4943    0.5502    0.9152 H   0  0  0  0  0  0  0  0  0  0  0  0
    0.4920   -1.0013    0.0531 H   0  0  0  0  0  0  0  0  0  0  0  0
    2.7777    1.0394    0.0185 H   0  0  0  0  0  0  0  0  0  0  0  0
    2.7756   -0.5030   -0.8387 H   0  0  0  0  0  0  0  0  0  0  0  0
    2.5802   -1.7189    1.3471 H   0  0  0  0  0  0  0  0  0  0  0  0
    2.5805   -0.1760    2.2053 H   0  0  0  0  0  0  0  0  0  0  0  0
    4.8447    0.3447    1.2662 H   0  0  0  0  0  0  0  0  0  0  0  0
    4.8446   -1.1955    0.4093 H   0  0  0  0  0  0  0  0  0  0  0  0
    4.6805   -2.4122    2.5911 H   0  0  0  0  0  0  0  0  0  0  0  0
    4.6806   -0.8676    3.4503 H   0  0  0  0  0  0  0  0  0  0  0  0
  1  2  1  0  0  0  0
  1  9  1  0  0  0  0
  1 10  1  0  0  0  0
  1 11  1  0  0  0  0
  2  3  1  0  0  0  0
  2 12  1  0  0  0  0
  2 13  1  0  0  0  0
  3  4  1  0  0  0  0
  3 14  1  0  0  0  0
  3 15  1  0  0  0  0
  4  5  1  0  0  0  0
  4 16  1  0  0  0  0
  4 17  1  0  0  0  0
  5  6  1  0  0  0  0
  5 18  1  0  0  0  0
  5 19  1  0  0  0  0
  6  7  2  0  0  0  0
  6  8  1  0  0  0  0
M  CHG  1   8  -1
M  END
$$$$
