
 OpenBabel01032513223D

 31 30  0  0  0  0  0  0  0  0999 V2000
    0.9774   -0.0821    0.0730 C   0  0  0  0  0  0  0  0  0  0  0  0
    2.4937   -0.0815    0.0669 C   0  0  0  0  0  0  0  0  0  0  0  0
    3.0185    0.0568   -1.3554 C   0  0  0  0  0  0  0  0  0  0  0  0
    4.5394    0.0599   -1.3663 C   0  0  0  0  0  0  0  0  0  0  0  0
    5.0544    0.2005   -2.7906 C   0  0  0  0  0  0  0  0  0  0  0  0
    6.5743    0.2018   -2.8037 C   0  0  0  0  0  0  0  0  0  0  0  0
    7.0905    0.3425   -4.2291 C   0  0  0  0  0  0  0  0  0  0  0  0
    8.6120    0.3431   -4.2357 C   0  0  0  0  0  0  0  0  0  0  0  0
    9.1626    0.4823   -5.6464 C   0  0  0  0  0  0  0  0  0  0  0  0
   10.6931    0.4874   -5.6974 C   0  0  0  0  0  0  0  0  0  0  0  0
   11.2998    0.3785   -4.5941 O   0  0  0  0  0  0  0  0  0  0  0  0
   11.1685    0.6023   -6.8617 O   0  5  0  0  0  0  0  0  0  0  0  0
    0.6021   -0.1815    1.0948 H   0  0  0  0  0  0  0  0  0  0  0  0
    0.5888   -0.9159   -0.5206 H   0  0  0  0  0  0  0  0  0  0  0  0
    0.5888    0.8504   -0.3488 H   0  0  0  0  0  0  0  0  0  0  0  0
    2.8644   -1.0119    0.5127 H   0  0  0  0  0  0  0  0  0  0  0  0
    2.8644    0.7455    0.6837 H   0  0  0  0  0  0  0  0  0  0  0  0
    2.6441    0.9863   -1.8022 H   0  0  0  0  0  0  0  0  0  0  0  0
    2.6465   -0.7707   -1.9722 H   0  0  0  0  0  0  0  0  0  0  0  0
    4.9176   -0.8701   -0.9245 H   0  0  0  0  0  0  0  0  0  0  0  0
    4.9152    0.8873   -0.7519 H   0  0  0  0  0  0  0  0  0  0  0  0
    4.6784    1.1314   -3.2326 H   0  0  0  0  0  0  0  0  0  0  0  0
    4.6785   -0.6261   -3.4060 H   0  0  0  0  0  0  0  0  0  0  0  0
    6.9505   -0.7288   -2.3607 H   0  0  0  0  0  0  0  0  0  0  0  0
    6.9505    1.0278   -2.1873 H   0  0  0  0  0  0  0  0  0  0  0  0
    6.7135    1.2734   -4.6692 H   0  0  0  0  0  0  0  0  0  0  0  0
    6.7135   -0.4845   -4.8427 H   0  0  0  0  0  0  0  0  0  0  0  0
    8.9782   -0.5879   -3.7850 H   0  0  0  0  0  0  0  0  0  0  0  0
    8.9782    1.1681   -3.6117 H   0  0  0  0  0  0  0  0  0  0  0  0
    8.7999    1.4150   -6.0964 H   0  0  0  0  0  0  0  0  0  0  0  0
    8.7999   -0.3444   -6.2701 H   0  0  0  0  0  0  0  0  0  0  0  0
  1  2  1  0  0  0  0
  1 13  1  0  0  0  0
  1 14  1  0  0  0  0
  1 15  1  0  0  0  0
  2  3  1  0  0  0  0
  2 16  1  0  0  0  0
  2 17  1  0  0  0  0
  3  4  1  0  0  0  0
  3 18  1  0  0  0  0
  3 19  1  0  0  0  0
  4  5  1  0  0  0  0
  4 20  1  0  0  0  0
  4 21  1  0  0  0  0
  5  6  1  0  0  0  0
  5 22  1  0  0  0  0
  5 23  1  0  0  0  0
  6  7  1  0  0  0  0
  6 24  1  0  0  0  0
  6 25  1  0  0  0  0
  7  8  1  0  0  0  0
  7 26  1  0  0  0  0
  7 27  1  0  0  0  0
  8  9  1  0  0  0  0
  8 28  1  0  0  0  0
  8 29  1  0  0  0  0
  9 10  1  0  0  0  0
  9 30  1  0  0  0  0
  9 31  1  0  0  0  0
 10 11  2  0  0  0  0
 10 12  1  0  0  0  0
M  CHG  1  12  -1
M  END
$$$$
