
 OpenBabel01082507123D

 25 24  0  0  0  0  0  0  0  0999 V2000
    1.0124   -0.0675   -0.0172 C   0  0  0  0  0  0  0  0  0  0  0  0
    2.5317   -0.0802   -0.0005 C   0  0  0  0  0  0  0  0  0  0  0  0
    3.0653   -0.8319    1.2177 C   0  0  0  0  0  0  0  0  0  0  0  0
    4.5924   -0.8419    1.2337 C   0  0  0  0  0  0  0  0  0  0  0  0
    5.1313   -1.5947    2.4502 C   0  0  0  0  0  0  0  0  0  0  0  0
    6.6593   -1.5953    2.4510 C   0  0  0  0  0  0  0  0  0  0  0  0
    7.2238   -2.3405    3.6545 C   0  0  0  0  0  0  0  0  0  0  0  0
    8.7537   -2.3790    3.7162 C   0  0  0  0  0  0  0  0  0  0  0  0
    9.3752   -1.8007    2.7827 O   0  0  0  0  0  0  0  0  0  0  0  0
    9.2121   -2.9989    4.7179 O   0  5  0  0  0  0  0  0  0  0  0  0
    0.6468    0.4740   -0.8949 H   0  0  0  0  0  0  0  0  0  0  0  0
    0.6158    0.4245    0.8767 H   0  0  0  0  0  0  0  0  0  0  0  0
    0.6134   -1.0862   -0.0544 H   0  0  0  0  0  0  0  0  0  0  0  0
    2.9016    0.9518    0.0061 H   0  0  0  0  0  0  0  0  0  0  0  0
    2.8994   -0.5506   -0.9199 H   0  0  0  0  0  0  0  0  0  0  0  0
    2.6908   -1.8627    1.2075 H   0  0  0  0  0  0  0  0  0  0  0  0
    2.6910   -0.3605    2.1345 H   0  0  0  0  0  0  0  0  0  0  0  0
    4.9668    0.1891    1.2446 H   0  0  0  0  0  0  0  0  0  0  0  0
    4.9668   -1.3116    0.3159 H   0  0  0  0  0  0  0  0  0  0  0  0
    4.7603   -2.6269    2.4404 H   0  0  0  0  0  0  0  0  0  0  0  0
    4.7604   -1.1255    3.3696 H   0  0  0  0  0  0  0  0  0  0  0  0
    7.0240   -0.5606    2.4541 H   0  0  0  0  0  0  0  0  0  0  0  0
    7.0239   -2.0593    1.5262 H   0  0  0  0  0  0  0  0  0  0  0  0
    6.8621   -3.3763    3.6483 H   0  0  0  0  0  0  0  0  0  0  0  0
    6.8621   -1.8735    4.5790 H   0  0  0  0  0  0  0  0  0  0  0  0
  1  2  1  0  0  0  0
  1 11  1  0  0  0  0
  1 12  1  0  0  0  0
  1 13  1  0  0  0  0
  2  3  1  0  0  0  0
  2 14  1  0  0  0  0
  2 15  1  0  0  0  0
  3  4  1  0  0  0  0
  3 16  1  0  0  0  0
  3 17  1  0  0  0  0
  4  5  1  0  0  0  0
  4 18  1  0  0  0  0
  4 19  1  0  0  0  0
  5  6  1  0  0  0  0
  5 20  1  0  0  0  0
  5 21  1  0  0  0  0
  6  7  1  0  0  0  0
  6 22  1  0  0  0  0
  6 23  1  0  0  0  0
  7  8  1  0  0  0  0
  7 24  1  0  0  0  0
  7 25  1  0  0  0  0
  8  9  2  0  0  0  0
  8 10  1  0  0  0  0
M  CHG  1  10  -1
M  END
$$$$
