
 OpenBabel01032513233D

 37 38  0  0  1  0  0  0  0  0999 V2000
    0.8795   -0.0600    0.3191 C   0  0  0  0  0  0  0  0  0  0  0  0
    2.3990   -0.0621    0.1118 C   0  0  3  0  0  0  0  0  0  0  0  0
    2.9689   -1.3325   -0.6236 C   0  0  0  0  0  0  0  0  0  0  0  0
    3.7934   -0.7420   -1.7491 C   0  0  0  0  0  0  0  0  0  0  0  0
    3.8026    0.5931   -1.7316 C   0  0  0  0  0  0  0  0  0  0  0  0
    2.9775    1.2051   -0.6283 C   0  0  0  0  0  0  0  0  0  0  0  0
    3.8630    2.0007    0.3497 C   0  0  0  0  0  0  0  0  0  0  0  0
    1.8983    2.1374   -1.2058 C   0  0  0  0  0  0  0  0  0  0  0  0
    4.5733    1.3682   -2.7216 C   0  0  0  0  0  0  0  0  0  0  0  0
    4.6283    2.5954   -2.6510 O   0  0  0  0  0  0  0  0  0  0  0  0
    5.2745    0.6462   -3.8469 C   0  0  0  0  0  0  0  0  0  0  0  0
    5.2987   -0.8761   -3.8232 C   0  0  0  0  0  0  0  0  0  0  0  0
    4.5064   -1.6020   -2.7392 C   0  0  0  0  0  0  0  0  0  0  0  0
    1.8961   -2.2853   -1.1749 C   0  0  0  0  0  0  0  0  0  0  0  0
    3.8741   -2.1172    0.3470 C   0  0  0  0  0  0  0  0  0  0  0  0
    0.5659   -0.9337    0.8997 H   0  0  0  0  0  0  0  0  0  0  0  0
    0.3304   -0.0673   -0.6276 H   0  0  0  0  0  0  0  0  0  0  0  0
    0.5646    0.8199    0.8892 H   0  0  0  0  0  0  0  0  0  0  0  0
    2.8052   -0.0611    1.1345 H   0  0  0  0  0  0  0  0  0  0  0  0
    4.6993    1.3953    0.7192 H   0  0  0  0  0  0  0  0  0  0  0  0
    3.2817    2.3319    1.2181 H   0  0  0  0  0  0  0  0  0  0  0  0
    4.2875    2.8961   -0.1165 H   0  0  0  0  0  0  0  0  0  0  0  0
    1.2694    1.6225   -1.9409 H   0  0  0  0  0  0  0  0  0  0  0  0
    2.3369    3.0046   -1.7113 H   0  0  0  0  0  0  0  0  0  0  0  0
    1.2516    2.5386   -0.4185 H   0  0  0  0  0  0  0  0  0  0  0  0
    6.3098    1.0086   -3.8612 H   0  0  0  0  0  0  0  0  0  0  0  0
    4.8041    0.9802   -4.7805 H   0  0  0  0  0  0  0  0  0  0  0  0
    6.3444   -1.2056   -3.7669 H   0  0  0  0  0  0  0  0  0  0  0  0
    4.9590   -1.2391   -4.8024 H   0  0  0  0  0  0  0  0  0  0  0  0
    5.1924   -2.2701   -2.2056 H   0  0  0  0  0  0  0  0  0  0  0  0
    3.7770   -2.2507   -3.2374 H   0  0  0  0  0  0  0  0  0  0  0  0
    1.2599   -1.7934   -1.9192 H   0  0  0  0  0  0  0  0  0  0  0  0
    1.2561   -2.6769   -0.3767 H   0  0  0  0  0  0  0  0  0  0  0  0
    2.3472   -3.1581   -1.6613 H   0  0  0  0  0  0  0  0  0  0  0  0
    4.7120   -1.5044    0.7016 H   0  0  0  0  0  0  0  0  0  0  0  0
    4.2976   -3.0108   -0.1252 H   0  0  0  0  0  0  0  0  0  0  0  0
    3.3079   -2.4487    1.2249 H   0  0  0  0  0  0  0  0  0  0  0  0
  1  2  1  0  0  0  0
  1 16  1  0  0  0  0
  1 17  1  0  0  0  0
  1 18  1  0  0  0  0
  2  3  1  0  0  0  0
  2  6  1  0  0  0  0
  2 19  1  0  0  0  0
  3  4  1  0  0  0  0
  3 14  1  0  0  0  0
  3 15  1  0  0  0  0
  4  5  2  0  0  0  0
  4 13  1  0  0  0  0
  5  6  1  0  0  0  0
  5  9  1  0  0  0  0
  6  7  1  0  0  0  0
  6  8  1  0  0  0  0
  7 20  1  0  0  0  0
  7 21  1  0  0  0  0
  7 22  1  0  0  0  0
  8 23  1  0  0  0  0
  8 24  1  0  0  0  0
  8 25  1  0  0  0  0
  9 10  2  0  0  0  0
  9 11  1  0  0  0  0
 11 12  1  0  0  0  0
 11 26  1  0  0  0  0
 11 27  1  0  0  0  0
 12 13  1  0  0  0  0
 12 28  1  0  0  0  0
 12 29  1  0  0  0  0
 13 30  1  0  0  0  0
 13 31  1  0  0  0  0
 14 32  1  0  0  0  0
 14 33  1  0  0  0  0
 14 34  1  0  0  0  0
 15 35  1  0  0  0  0
 15 36  1  0  0  0  0
 15 37  1  0  0  0  0
M  END
$$$$
