
 OpenBabel01102509053D

 17 17  0  0  0  0  0  0  0  0999 V2000
    1.3733   -0.1961    0.0283 C   0  0  0  0  0  0  0  0  0  0  0  0
    0.5283   -1.3018    0.0181 C   0  0  0  0  0  0  0  0  0  0  0  0
   -0.8605   -1.1272   -0.0182 C   0  0  0  0  0  0  0  0  0  0  0  0
   -1.4224    0.1579   -0.0407 C   0  0  0  0  0  0  0  0  0  0  0  0
   -0.5559    1.2614   -0.0215 C   0  0  0  0  0  0  0  0  0  0  0  0
    0.8311    1.0862    0.0165 C   0  0  0  0  0  0  0  0  0  0  0  0
   -2.8732    0.3978   -0.1582 C   0  0  0  0  0  0  0  0  0  0  0  0
   -3.8344   -0.4067    0.3216 C   0  0  0  0  0  0  0  0  0  0  0  0
   -5.2179   -0.1207    0.1368 C   0  0  0  0  0  0  0  0  0  0  0  0
   -6.3457    0.0904   -0.0190 N   0  0  0  0  0  0  0  0  0  0  0  0
    2.4513   -0.3337    0.0444 H   0  0  0  0  0  0  0  0  0  0  0  0
    0.9472   -2.3051    0.0290 H   0  0  0  0  0  0  0  0  0  0  0  0
   -1.4839   -2.0167   -0.0375 H   0  0  0  0  0  0  0  0  0  0  0  0
   -0.9505    2.2756   -0.0297 H   0  0  0  0  0  0  0  0  0  0  0  0
    1.4879    1.9524    0.0312 H   0  0  0  0  0  0  0  0  0  0  0  0
   -3.1536    1.3088   -0.6875 H   0  0  0  0  0  0  0  0  0  0  0  0
   -3.6082   -1.3152    0.8637 H   0  0  0  0  0  0  0  0  0  0  0  0
  1  2  2  0  0  0  0
  1  6  1  0  0  0  0
  1 11  1  0  0  0  0
  2  3  1  0  0  0  0
  2 12  1  0  0  0  0
  3  4  2  0  0  0  0
  3 13  1  0  0  0  0
  4  5  1  0  0  0  0
  4  7  1  0  0  0  0
  5  6  2  0  0  0  0
  5 14  1  0  0  0  0
  6 15  1  0  0  0  0
  7  8  2  0  0  0  0
  7 16  1  0  0  0  0
  8  9  1  0  0  0  0
  8 17  1  0  0  0  0
  9 10  3  0  0  0  0
M  END
$$$$
