
 OpenBabel10132422423D

 20 20  0  0  0  0  0  0  0  0999 V2000
    1.4106   -0.1913    0.0579 C   0  0  0  0  0  0  0  0  0  0  0  0
    0.8699    1.0912    0.0232 C   0  0  0  0  0  0  0  0  0  0  0  0
   -0.5140    1.2647   -0.0575 C   0  0  0  0  0  0  0  0  0  0  0  0
   -1.3736    0.1587   -0.1161 C   0  0  0  0  0  0  0  0  0  0  0  0
   -0.8176   -1.1260   -0.0562 C   0  0  0  0  0  0  0  0  0  0  0  0
    0.5674   -1.3000    0.0240 C   0  0  0  0  0  0  0  0  0  0  0  0
   -2.8229    0.3988   -0.1940 C   0  0  0  0  0  0  0  0  0  0  0  0
   -3.7030   -0.4159   -0.7983 C   0  0  0  0  0  0  0  0  0  0  0  0
   -5.1646   -0.1307   -0.9022 C   0  0  0  0  0  0  0  0  0  0  0  0
   -5.5146   -0.0911   -2.2764 O   0  0  0  0  0  0  0  0  0  0  0  0
    2.4872   -0.3272    0.1160 H   0  0  0  0  0  0  0  0  0  0  0  0
    1.5242    1.9589    0.0563 H   0  0  0  0  0  0  0  0  0  0  0  0
   -0.9138    2.2758   -0.0858 H   0  0  0  0  0  0  0  0  0  0  0  0
   -1.4526   -2.0080   -0.0645 H   0  0  0  0  0  0  0  0  0  0  0  0
    0.9862   -2.3022    0.0614 H   0  0  0  0  0  0  0  0  0  0  0  0
   -3.1686    1.3294    0.2520 H   0  0  0  0  0  0  0  0  0  0  0  0
   -3.3762   -1.3402   -1.2680 H   0  0  0  0  0  0  0  0  0  0  0  0
   -5.4412    0.8249   -0.4459 H   0  0  0  0  0  0  0  0  0  0  0  0
   -5.7426   -0.9241   -0.4200 H   0  0  0  0  0  0  0  0  0  0  0  0
   -4.9131    0.5447   -2.7010 H   0  0  0  0  0  0  0  0  0  0  0  0
  1  2  1  0  0  0  0
  1  6  2  0  0  0  0
  1 11  1  0  0  0  0
  2  3  2  0  0  0  0
  2 12  1  0  0  0  0
  3  4  1  0  0  0  0
  3 13  1  0  0  0  0
  4  5  2  0  0  0  0
  4  7  1  0  0  0  0
  5  6  1  0  0  0  0
  5 14  1  0  0  0  0
  6 15  1  0  0  0  0
  7  8  2  0  0  0  0
  7 16  1  0  0  0  0
  8  9  1  0  0  0  0
  8 17  1  0  0  0  0
  9 10  1  0  0  0  0
  9 18  1  0  0  0  0
  9 19  1  0  0  0  0
 10 20  1  0  0  0  0
M  END
$$$$
