
 OpenBabel10212417543D

 26 25  0  0  0  0  0  0  0  0999 V2000
    1.2470   -0.1500   -0.4016 C   0  0  0  0  0  0  0  0  0  0  0  0
    2.7444   -0.0938   -0.2514 C   0  0  0  0  0  0  0  0  0  0  0  0
    3.3702    0.3332    0.8663 C   0  0  0  0  0  0  0  0  0  0  0  0
    2.6345    0.7947    2.0979 C   0  0  0  0  0  0  0  0  0  0  0  0
    3.5072    1.2009    3.2951 C   0  0  0  0  0  0  0  0  0  0  0  0
    2.6499    1.6405    4.4768 C   0  0  0  0  0  0  0  0  0  0  0  0
    2.6572    2.8745    5.0223 C   0  0  0  0  0  0  0  0  0  0  0  0
    3.4740    3.9540    4.5871 C   0  0  0  0  0  0  0  0  0  0  0  0
    4.1313    4.8455    4.2531 N   0  0  0  0  0  0  0  0  0  0  0  0
    1.7262    0.6070    5.0687 C   0  0  0  0  0  0  0  0  0  0  0  0
    3.5162   -0.5518   -1.4608 C   0  0  0  0  0  0  0  0  0  0  0  0
    0.7073    0.1834    0.4888 H   0  0  0  0  0  0  0  0  0  0  0  0
    0.9277   -1.1764   -0.6084 H   0  0  0  0  0  0  0  0  0  0  0  0
    0.9290    0.4907   -1.2307 H   0  0  0  0  0  0  0  0  0  0  0  0
    4.4596    0.3459    0.8947 H   0  0  0  0  0  0  0  0  0  0  0  0
    1.9741   -0.0247    2.4076 H   0  0  0  0  0  0  0  0  0  0  0  0
    2.0044    1.6512    1.8262 H   0  0  0  0  0  0  0  0  0  0  0  0
    4.1956    1.9948    2.9851 H   0  0  0  0  0  0  0  0  0  0  0  0
    4.1360    0.3599    3.6128 H   0  0  0  0  0  0  0  0  0  0  0  0
    2.0015    3.0975    5.8576 H   0  0  0  0  0  0  0  0  0  0  0  0
    1.8531   -0.3750    4.6014 H   0  0  0  0  0  0  0  0  0  0  0  0
    0.6809    0.9070    4.9336 H   0  0  0  0  0  0  0  0  0  0  0  0
    1.9225    0.4781    6.1390 H   0  0  0  0  0  0  0  0  0  0  0  0
    2.8385   -0.8516   -2.2683 H   0  0  0  0  0  0  0  0  0  0  0  0
    4.1391   -1.4186   -1.2215 H   0  0  0  0  0  0  0  0  0  0  0  0
    4.1473    0.2538   -1.8495 H   0  0  0  0  0  0  0  0  0  0  0  0
  1  2  1  0  0  0  0
  1 12  1  0  0  0  0
  1 13  1  0  0  0  0
  1 14  1  0  0  0  0
  2  3  2  0  0  0  0
  2 11  1  0  0  0  0
  3  4  1  0  0  0  0
  3 15  1  0  0  0  0
  4  5  1  0  0  0  0
  4 16  1  0  0  0  0
  4 17  1  0  0  0  0
  5  6  1  0  0  0  0
  5 18  1  0  0  0  0
  5 19  1  0  0  0  0
  6  7  2  3  0  0  0
  6 10  1  0  0  0  0
  7  8  1  0  0  0  0
  7 20  1  0  0  0  0
  8  9  3  0  0  0  0
 10 21  1  0  0  0  0
 10 22  1  0  0  0  0
 10 23  1  0  0  0  0
 11 24  1  0  0  0  0
 11 25  1  0  0  0  0
 11 26  1  0  0  0  0
M  END
$$$$
