
 OpenBabel11132408253D

 19 19  0  0  0  0  0  0  0  0999 V2000
    2.4878   -0.0313   -0.0118 C   0  0  0  0  0  0  0  0  0  0  0  0
    0.9890    0.0068   -0.0044 C   0  0  0  0  0  0  0  0  0  0  0  0
    0.3033    1.2246   -0.0026 C   0  0  0  0  0  0  0  0  0  0  0  0
   -1.0959    1.2575   -0.0042 C   0  0  0  0  0  0  0  0  0  0  0  0
   -1.8263    0.0701   -0.0079 C   0  0  0  0  0  0  0  0  0  0  0  0
   -1.1433   -1.1482   -0.0059 C   0  0  0  0  0  0  0  0  0  0  0  0
    0.2535   -1.1826   -0.0043 C   0  0  0  0  0  0  0  0  0  0  0  0
   -3.1905   -0.0328   -0.0152 O   0  0  0  0  0  0  0  0  0  0  0  0
   -3.9210    1.1876   -0.0224 C   0  0  0  0  0  0  0  0  0  0  0  0
    2.9141    0.9773    0.0053 H   0  0  0  0  0  0  0  0  0  0  0  0
    2.8474   -0.5319   -0.9163 H   0  0  0  0  0  0  0  0  0  0  0  0
    2.8571   -0.5656    0.8691 H   0  0  0  0  0  0  0  0  0  0  0  0
    0.8516    2.1645   -0.0036 H   0  0  0  0  0  0  0  0  0  0  0  0
   -1.5799    2.2279   -0.0039 H   0  0  0  0  0  0  0  0  0  0  0  0
   -1.7046   -2.0792   -0.0074 H   0  0  0  0  0  0  0  0  0  0  0  0
    0.7623   -2.1438   -0.0045 H   0  0  0  0  0  0  0  0  0  0  0  0
   -4.9867    0.9416   -0.0475 H   0  0  0  0  0  0  0  0  0  0  0  0
   -3.6959    1.7787   -0.9166 H   0  0  0  0  0  0  0  0  0  0  0  0
   -3.7328    1.7634    0.8900 H   0  0  0  0  0  0  0  0  0  0  0  0
  1  2  1  0  0  0  0
  1 10  1  0  0  0  0
  1 11  1  0  0  0  0
  1 12  1  0  0  0  0
  2  3  2  0  0  0  0
  2  7  1  0  0  0  0
  3  4  1  0  0  0  0
  3 13  1  0  0  0  0
  4  5  2  0  0  0  0
  4 14  1  0  0  0  0
  5  6  1  0  0  0  0
  5  8  1  0  0  0  0
  6  7  2  0  0  0  0
  6 15  1  0  0  0  0
  7 16  1  0  0  0  0
  8  9  1  0  0  0  0
  9 17  1  0  0  0  0
  9 18  1  0  0  0  0
  9 19  1  0  0  0  0
M  END
$$$$
