
 OpenBabel01032513263D

 29 29  0  0  0  0  0  0  0  0999 V2000
    1.0112   -0.0504    0.1745 O   0  0  0  0  0  0  0  0  0  0  0  0
    2.2401   -0.0450    0.0772 C   0  0  0  0  0  0  0  0  0  0  0  0
    3.0370   -1.3094    0.3233 C   0  0  0  0  0  0  0  0  0  0  0  0
    2.8498   -1.8221    1.7539 C   0  0  0  0  0  0  0  0  0  0  0  0
    4.1573   -1.9495    2.5450 C   0  0  0  0  0  0  0  0  0  0  0  0
    4.5426   -0.7268    3.3875 C   0  0  0  0  0  0  0  0  0  0  0  0
    4.7510    0.5620    2.5909 C   0  0  0  0  0  0  0  0  0  0  0  0
    3.5940    1.5498    2.7759 C   0  0  0  0  0  0  0  0  0  0  0  0
    3.5819    2.6604    1.7241 C   0  0  0  0  0  0  0  0  0  0  0  0
    2.6302    2.4084    0.5462 C   0  0  0  0  0  0  0  0  0  0  0  0
    2.9871    1.2128   -0.3333 C   0  0  0  0  0  0  0  0  0  0  0  0
    4.0881   -1.1501    0.0680 H   0  0  0  0  0  0  0  0  0  0  0  0
    2.6659   -2.0551   -0.3907 H   0  0  0  0  0  0  0  0  0  0  0  0
    2.4182   -2.8300    1.6801 H   0  0  0  0  0  0  0  0  0  0  0  0
    2.1241   -1.2273    2.3183 H   0  0  0  0  0  0  0  0  0  0  0  0
    4.9857   -2.2196    1.8787 H   0  0  0  0  0  0  0  0  0  0  0  0
    4.0467   -2.7913    3.2414 H   0  0  0  0  0  0  0  0  0  0  0  0
    5.4839   -0.9704    3.8963 H   0  0  0  0  0  0  0  0  0  0  0  0
    3.8006   -0.5790    4.1821 H   0  0  0  0  0  0  0  0  0  0  0  0
    4.9381    0.3389    1.5402 H   0  0  0  0  0  0  0  0  0  0  0  0
    5.6658    1.0516    2.9504 H   0  0  0  0  0  0  0  0  0  0  0  0
    3.7168    2.0129    3.7649 H   0  0  0  0  0  0  0  0  0  0  0  0
    2.6260    1.0403    2.7991 H   0  0  0  0  0  0  0  0  0  0  0  0
    4.5947    2.8623    1.3555 H   0  0  0  0  0  0  0  0  0  0  0  0
    3.2454    3.5838    2.2133 H   0  0  0  0  0  0  0  0  0  0  0  0
    2.6490    3.3075   -0.0827 H   0  0  0  0  0  0  0  0  0  0  0  0
    1.6048    2.3245    0.9271 H   0  0  0  0  0  0  0  0  0  0  0  0
    4.0686    1.0416   -0.3588 H   0  0  0  0  0  0  0  0  0  0  0  0
    2.6875    1.4133   -1.3673 H   0  0  0  0  0  0  0  0  0  0  0  0
  1  2  2  0  0  0  0
  2  3  1  0  0  0  0
  2 11  1  0  0  0  0
  3  4  1  0  0  0  0
  3 12  1  0  0  0  0
  3 13  1  0  0  0  0
  4  5  1  0  0  0  0
  4 14  1  0  0  0  0
  4 15  1  0  0  0  0
  5  6  1  0  0  0  0
  5 16  1  0  0  0  0
  5 17  1  0  0  0  0
  6  7  1  0  0  0  0
  6 18  1  0  0  0  0
  6 19  1  0  0  0  0
  7  8  1  0  0  0  0
  7 20  1  0  0  0  0
  7 21  1  0  0  0  0
  8  9  1  0  0  0  0
  8 22  1  0  0  0  0
  8 23  1  0  0  0  0
  9 10  1  0  0  0  0
  9 24  1  0  0  0  0
  9 25  1  0  0  0  0
 10 11  1  0  0  0  0
 10 26  1  0  0  0  0
 10 27  1  0  0  0  0
 11 28  1  0  0  0  0
 11 29  1  0  0  0  0
M  END
$$$$
