
 OpenBabel09032405083D

 11 11  0  0  0  0  0  0  0  0999 V2000
   -0.0012    0.8641    0.0688 C   0  0  0  0  0  0  0  0  0  0  0  0
   -0.6844   -0.4673   -0.0098 C   0  0  0  0  0  0  0  0  0  0  0  0
    0.8290   -0.4051    0.0395 C   0  0  0  0  0  0  0  0  0  0  0  0
    1.5521   -0.7864    1.2692 C   0  0  0  0  0  0  0  0  0  0  0  0
    1.0515   -1.7003    1.9994 O   0  0  0  0  0  0  0  0  0  0  0  0
    2.6414   -0.1768    1.5048 O   0  5  0  0  0  0  0  0  0  0  0  0
   -0.0453    1.4066    1.0077 H   0  0  0  0  0  0  0  0  0  0  0  0
    0.0208    1.4912   -0.8128 H   0  0  0  0  0  0  0  0  0  0  0  0
   -1.1397   -0.7616   -0.9461 H   0  0  0  0  0  0  0  0  0  0  0  0
   -1.1963   -0.8361    0.8726 H   0  0  0  0  0  0  0  0  0  0  0  0
    1.3443   -0.6178   -0.8901 H   0  0  0  0  0  0  0  0  0  0  0  0
  1  2  1  0  0  0  0
  1  3  1  0  0  0  0
  1  7  1  0  0  0  0
  1  8  1  0  0  0  0
  2  3  1  0  0  0  0
  2  9  1  0  0  0  0
  2 10  1  0  0  0  0
  3  4  1  0  0  0  0
  3 11  1  0  0  0  0
  4  5  2  0  0  0  0
  4  6  1  0  0  0  0
M  CHG  1   6  -1
M  END
$$$$
