
 OpenBabel01032513263D

 44 44  0  0  0  0  0  0  0  0999 V2000
    1.1084   -0.0277    0.2392 O   0  0  0  0  0  0  0  0  0  0  0  0
    2.3312   -0.0345    0.1155 C   0  0  0  0  0  0  0  0  0  0  0  0
    3.0954    1.2532   -0.1121 C   0  0  0  0  0  0  0  0  0  0  0  0
    3.2840    1.5349   -1.6034 C   0  0  0  0  0  0  0  0  0  0  0  0
    4.7589    1.4833   -2.0038 C   0  0  0  0  0  0  0  0  0  0  0  0
    4.9805    1.8501   -3.4761 C   0  0  0  0  0  0  0  0  0  0  0  0
    6.1778    1.1029   -4.0791 C   0  0  0  0  0  0  0  0  0  0  0  0
    5.7531   -0.1956   -4.7923 C   0  0  0  0  0  0  0  0  0  0  0  0
    6.5095   -1.4196   -4.2691 C   0  0  0  0  0  0  0  0  0  0  0  0
    5.9572   -2.7345   -4.8430 C   0  0  0  0  0  0  0  0  0  0  0  0
    5.6707   -3.7591   -3.7387 C   0  0  0  0  0  0  0  0  0  0  0  0
    4.4367   -3.3712   -2.9117 C   0  0  0  0  0  0  0  0  0  0  0  0
    4.4717   -3.9645   -1.5024 C   0  0  0  0  0  0  0  0  0  0  0  0
    3.1927   -3.7446   -0.6846 C   0  0  0  0  0  0  0  0  0  0  0  0
    2.5251   -2.3666   -0.7717 C   0  0  0  0  0  0  0  0  0  0  0  0
    3.1271   -1.3302    0.1739 C   0  0  0  0  0  0  0  0  0  0  0  0
    4.0408    1.2082    0.4382 H   0  0  0  0  0  0  0  0  0  0  0  0
    2.5112    2.0613    0.3465 H   0  0  0  0  0  0  0  0  0  0  0  0
    2.8863    2.5317   -1.8312 H   0  0  0  0  0  0  0  0  0  0  0  0
    2.7193    0.8237   -2.2140 H   0  0  0  0  0  0  0  0  0  0  0  0
    5.1487    0.4838   -1.7890 H   0  0  0  0  0  0  0  0  0  0  0  0
    5.3304    2.1905   -1.3817 H   0  0  0  0  0  0  0  0  0  0  0  0
    5.1738    2.9289   -3.5333 H   0  0  0  0  0  0  0  0  0  0  0  0
    4.0786    1.6735   -4.0717 H   0  0  0  0  0  0  0  0  0  0  0  0
    6.9334    0.9089   -3.3058 H   0  0  0  0  0  0  0  0  0  0  0  0
    6.6586    1.7516   -4.8165 H   0  0  0  0  0  0  0  0  0  0  0  0
    5.9455   -0.0906   -5.8646 H   0  0  0  0  0  0  0  0  0  0  0  0
    4.6745   -0.3634   -4.6804 H   0  0  0  0  0  0  0  0  0  0  0  0
    6.4664   -1.4244   -3.1727 H   0  0  0  0  0  0  0  0  0  0  0  0
    7.5696   -1.3272   -4.5323 H   0  0  0  0  0  0  0  0  0  0  0  0
    6.7019   -3.1557   -5.5286 H   0  0  0  0  0  0  0  0  0  0  0  0
    5.0485   -2.5687   -5.4337 H   0  0  0  0  0  0  0  0  0  0  0  0
    6.5558   -3.8573   -3.0983 H   0  0  0  0  0  0  0  0  0  0  0  0
    5.4973   -4.7430   -4.1914 H   0  0  0  0  0  0  0  0  0  0  0  0
    3.5354   -3.6966   -3.4397 H   0  0  0  0  0  0  0  0  0  0  0  0
    4.3819   -2.2823   -2.8264 H   0  0  0  0  0  0  0  0  0  0  0  0
    5.3270   -3.5497   -0.9589 H   0  0  0  0  0  0  0  0  0  0  0  0
    4.6439   -5.0477   -1.5734 H   0  0  0  0  0  0  0  0  0  0  0  0
    3.4057   -3.9848    0.3659 H   0  0  0  0  0  0  0  0  0  0  0  0
    2.4559   -4.4879   -1.0160 H   0  0  0  0  0  0  0  0  0  0  0  0
    1.4653   -2.4974   -0.5175 H   0  0  0  0  0  0  0  0  0  0  0  0
    2.5220   -1.9799   -1.7958 H   0  0  0  0  0  0  0  0  0  0  0  0
    4.1722   -1.1374   -0.0805 H   0  0  0  0  0  0  0  0  0  0  0  0
    3.0930   -1.6811    1.2110 H   0  0  0  0  0  0  0  0  0  0  0  0
  1  2  2  0  0  0  0
  2  3  1  0  0  0  0
  2 16  1  0  0  0  0
  3  4  1  0  0  0  0
  3 17  1  0  0  0  0
  3 18  1  0  0  0  0
  4  5  1  0  0  0  0
  4 19  1  0  0  0  0
  4 20  1  0  0  0  0
  5  6  1  0  0  0  0
  5 21  1  0  0  0  0
  5 22  1  0  0  0  0
  6  7  1  0  0  0  0
  6 23  1  0  0  0  0
  6 24  1  0  0  0  0
  7  8  1  0  0  0  0
  7 25  1  0  0  0  0
  7 26  1  0  0  0  0
  8  9  1  0  0  0  0
  8 27  1  0  0  0  0
  8 28  1  0  0  0  0
  9 10  1  0  0  0  0
  9 29  1  0  0  0  0
  9 30  1  0  0  0  0
 10 11  1  0  0  0  0
 10 31  1  0  0  0  0
 10 32  1  0  0  0  0
 11 12  1  0  0  0  0
 11 33  1  0  0  0  0
 11 34  1  0  0  0  0
 12 13  1  0  0  0  0
 12 35  1  0  0  0  0
 12 36  1  0  0  0  0
 13 14  1  0  0  0  0
 13 37  1  0  0  0  0
 13 38  1  0  0  0  0
 14 15  1  0  0  0  0
 14 39  1  0  0  0  0
 14 40  1  0  0  0  0
 15 16  1  0  0  0  0
 15 41  1  0  0  0  0
 15 42  1  0  0  0  0
 16 43  1  0  0  0  0
 16 44  1  0  0  0  0
M  END
$$$$
