
 OpenBabel09022421543D

 14 14  0  0  0  0  0  0  0  0999 V2000
    0.3323    1.0123   -0.2077 C   0  0  0  0  0  0  0  0  0  0  0  0
    0.9774   -0.3251    0.2045 C   0  0  0  0  0  0  0  0  0  0  0  0
   -0.3668   -0.9951   -0.1442 C   0  0  0  0  0  0  0  0  0  0  0  0
   -1.0403    0.3748    0.1372 C   0  0  0  0  0  0  0  0  0  0  0  0
   -2.1880    0.7732   -0.7596 C   0  0  0  0  0  0  0  0  0  0  0  0
   -2.9095   -0.1560   -1.2400 O   0  0  0  0  0  0  0  0  0  0  0  0
   -2.3627    2.0171   -0.9502 O   0  5  0  0  0  0  0  0  0  0  0  0
    0.4706    1.2561   -1.2679 H   0  0  0  0  0  0  0  0  0  0  0  0
    0.6176    1.8779    0.3959 H   0  0  0  0  0  0  0  0  0  0  0  0
    1.2379   -0.3812    1.2676 H   0  0  0  0  0  0  0  0  0  0  0  0
    1.8364   -0.6424   -0.3917 H   0  0  0  0  0  0  0  0  0  0  0  0
   -0.6663   -1.8143    0.5151 H   0  0  0  0  0  0  0  0  0  0  0  0
   -0.4250   -1.3361   -1.1846 H   0  0  0  0  0  0  0  0  0  0  0  0
   -1.3086    0.4982    1.1957 H   0  0  0  0  0  0  0  0  0  0  0  0
  1  2  1  0  0  0  0
  1  4  1  0  0  0  0
  1  8  1  0  0  0  0
  1  9  1  0  0  0  0
  2  3  1  0  0  0  0
  2 10  1  0  0  0  0
  2 11  1  0  0  0  0
  3  4  1  0  0  0  0
  3 12  1  0  0  0  0
  3 13  1  0  0  0  0
  4  5  1  0  0  0  0
  4 14  1  0  0  0  0
  5  6  2  0  0  0  0
  5  7  1  0  0  0  0
M  CHG  1   7  -1
M  END
$$$$
