
 OpenBabel01032513263D

 45 45  0  0  0  0  0  0  0  0999 V2000
   -3.2102   -0.8841   -0.3175 C   0  0  0  0  0  0  0  0  0  0  0  0
   -3.3770    0.5548    0.1824 C   0  0  0  0  0  0  0  0  0  0  0  0
   -2.4125    1.5454   -0.4879 C   0  0  0  0  0  0  0  0  0  0  0  0
   -1.3334    2.0648    0.4631 C   0  0  0  0  0  0  0  0  0  0  0  0
   -0.4803    3.1573   -0.1942 C   0  0  0  0  0  0  0  0  0  0  0  0
    0.9466    3.1953    0.3686 C   0  0  0  0  0  0  0  0  0  0  0  0
    1.8772    2.2166   -0.3650 C   0  0  0  0  0  0  0  0  0  0  0  0
    2.5663    1.2365    0.5850 C   0  0  0  0  0  0  0  0  0  0  0  0
    3.3889    0.1842   -0.1797 C   0  0  0  0  0  0  0  0  0  0  0  0
    3.0188   -1.2437    0.2362 C   0  0  0  0  0  0  0  0  0  0  0  0
    1.6497   -1.6646   -0.3135 C   0  0  0  0  0  0  0  0  0  0  0  0
    1.0023   -2.7519    0.5463 C   0  0  0  0  0  0  0  0  0  0  0  0
   -0.2252   -3.4062   -0.0975 C   0  0  0  0  0  0  0  0  0  0  0  0
   -1.2802   -2.4682   -0.6948 C   0  0  0  0  0  0  0  0  0  0  0  0
   -2.0530   -1.6497    0.3436 C   0  0  0  0  0  0  0  0  0  0  0  0
   -3.1152   -0.8796   -1.4101 H   0  0  0  0  0  0  0  0  0  0  0  0
   -4.1378   -1.4304   -0.1020 H   0  0  0  0  0  0  0  0  0  0  0  0
   -3.3081    0.5946    1.2755 H   0  0  0  0  0  0  0  0  0  0  0  0
   -4.3978    0.8683   -0.0730 H   0  0  0  0  0  0  0  0  0  0  0  0
   -2.9942    2.4006   -0.8568 H   0  0  0  0  0  0  0  0  0  0  0  0
   -1.9361    1.0921   -1.3658 H   0  0  0  0  0  0  0  0  0  0  0  0
   -0.7072    1.2285    0.7894 H   0  0  0  0  0  0  0  0  0  0  0  0
   -1.8018    2.4832    1.3613 H   0  0  0  0  0  0  0  0  0  0  0  0
   -0.9614    4.1262   -0.0112 H   0  0  0  0  0  0  0  0  0  0  0  0
   -0.4469    3.0340   -1.2839 H   0  0  0  0  0  0  0  0  0  0  0  0
    0.9317    3.0118    1.4496 H   0  0  0  0  0  0  0  0  0  0  0  0
    1.3433    4.2092    0.2327 H   0  0  0  0  0  0  0  0  0  0  0  0
    2.6453    2.7901   -0.8980 H   0  0  0  0  0  0  0  0  0  0  0  0
    1.3256    1.6527   -1.1252 H   0  0  0  0  0  0  0  0  0  0  0  0
    1.8136    0.7581    1.2229 H   0  0  0  0  0  0  0  0  0  0  0  0
    3.2310    1.7914    1.2570 H   0  0  0  0  0  0  0  0  0  0  0  0
    4.4517    0.3469    0.0407 H   0  0  0  0  0  0  0  0  0  0  0  0
    3.2757    0.2918   -1.2599 H   0  0  0  0  0  0  0  0  0  0  0  0
    3.0452   -1.3211    1.3285 H   0  0  0  0  0  0  0  0  0  0  0  0
    3.7784   -1.9367   -0.1472 H   0  0  0  0  0  0  0  0  0  0  0  0
    1.7748   -2.0190   -1.3437 H   0  0  0  0  0  0  0  0  0  0  0  0
    0.9756   -0.8035   -0.3532 H   0  0  0  0  0  0  0  0  0  0  0  0
    0.7251   -2.3244    1.5175 H   0  0  0  0  0  0  0  0  0  0  0  0
    1.7371   -3.5411    0.7519 H   0  0  0  0  0  0  0  0  0  0  0  0
   -0.6999   -4.0609    0.6446 H   0  0  0  0  0  0  0  0  0  0  0  0
    0.1274   -4.0625   -0.9020 H   0  0  0  0  0  0  0  0  0  0  0  0
   -1.9936   -3.0860   -1.2547 H   0  0  0  0  0  0  0  0  0  0  0  0
   -0.8206   -1.7962   -1.4263 H   0  0  0  0  0  0  0  0  0  0  0  0
   -1.3707   -0.9708    0.8663 H   0  0  0  0  0  0  0  0  0  0  0  0
   -2.4689   -2.3224    1.0998 H   0  0  0  0  0  0  0  0  0  0  0  0
  1  2  1  0  0  0  0
  1 15  1  0  0  0  0
  1 16  1  0  0  0  0
  1 17  1  0  0  0  0
  2  3  1  0  0  0  0
  2 18  1  0  0  0  0
  2 19  1  0  0  0  0
  3  4  1  0  0  0  0
  3 20  1  0  0  0  0
  3 21  1  0  0  0  0
  4  5  1  0  0  0  0
  4 22  1  0  0  0  0
  4 23  1  0  0  0  0
  5  6  1  0  0  0  0
  5 24  1  0  0  0  0
  5 25  1  0  0  0  0
  6  7  1  0  0  0  0
  6 26  1  0  0  0  0
  6 27  1  0  0  0  0
  7  8  1  0  0  0  0
  7 28  1  0  0  0  0
  7 29  1  0  0  0  0
  8  9  1  0  0  0  0
  8 30  1  0  0  0  0
  8 31  1  0  0  0  0
  9 10  1  0  0  0  0
  9 32  1  0  0  0  0
  9 33  1  0  0  0  0
 10 11  1  0  0  0  0
 10 34  1  0  0  0  0
 10 35  1  0  0  0  0
 11 12  1  0  0  0  0
 11 36  1  0  0  0  0
 11 37  1  0  0  0  0
 12 13  1  0  0  0  0
 12 38  1  0  0  0  0
 12 39  1  0  0  0  0
 13 14  1  0  0  0  0
 13 40  1  0  0  0  0
 13 41  1  0  0  0  0
 14 15  1  0  0  0  0
 14 42  1  0  0  0  0
 14 43  1  0  0  0  0
 15 44  1  0  0  0  0
 15 45  1  0  0  0  0
M  END
$$$$
