
 OpenBabel10142509383D

 23 23  0  0  0  0  0  0  0  0999 V2000
    2.5322    0.4169   -0.9662 O   0  5  0  0  0  0  0  0  0  0  0  0
    2.3694    0.2465    0.2758 C   0  0  0  0  0  0  0  0  0  0  0  0
    1.6063    0.8502    1.0794 O   0  0  0  0  0  0  0  0  0  0  0  0
    3.2054   -0.8759    0.8975 C   0  0  0  0  0  0  0  0  0  0  0  0
    4.7236   -0.6923    0.7570 C   0  0  0  0  0  0  0  0  0  0  0  0
    5.4625   -1.8850    1.3922 C   0  0  0  0  0  0  0  0  0  0  0  0
    6.9796   -1.7242    1.3124 C   0  0  0  0  0  0  0  0  0  0  0  0
    7.4376   -0.4106    1.9370 C   0  0  0  0  0  0  0  0  0  0  0  0
    6.7154    0.7805    1.3176 C   0  0  0  0  0  0  0  0  0  0  0  0
    5.1978    0.6241    1.3947 C   0  0  0  0  0  0  0  0  0  0  0  0
    2.9049   -1.8076    0.3999 H   0  0  0  0  0  0  0  0  0  0  0  0
    2.9351   -0.9855    1.9554 H   0  0  0  0  0  0  0  0  0  0  0  0
    4.9781   -0.6657   -0.3114 H   0  0  0  0  0  0  0  0  0  0  0  0
    5.1728   -2.8168    0.8918 H   0  0  0  0  0  0  0  0  0  0  0  0
    5.1687   -1.9869    2.4454 H   0  0  0  0  0  0  0  0  0  0  0  0
    7.2951   -1.7594    0.2623 H   0  0  0  0  0  0  0  0  0  0  0  0
    7.4686   -2.5629    1.8205 H   0  0  0  0  0  0  0  0  0  0  0  0
    8.5195   -0.2959    1.8069 H   0  0  0  0  0  0  0  0  0  0  0  0
    7.2459   -0.4327    3.0170 H   0  0  0  0  0  0  0  0  0  0  0  0
    7.0183    0.8863    0.2686 H   0  0  0  0  0  0  0  0  0  0  0  0
    7.0164    1.7008    1.8310 H   0  0  0  0  0  0  0  0  0  0  0  0
    4.7317    1.4793    0.8928 H   0  0  0  0  0  0  0  0  0  0  0  0
    4.8840    0.6607    2.4458 H   0  0  0  0  0  0  0  0  0  0  0  0
  1  2  1  0  0  0  0
  2  3  2  0  0  0  0
  2  4  1  0  0  0  0
  4  5  1  0  0  0  0
  4 11  1  0  0  0  0
  4 12  1  0  0  0  0
  5  6  1  0  0  0  0
  5 10  1  0  0  0  0
  5 13  1  0  0  0  0
  6  7  1  0  0  0  0
  6 14  1  0  0  0  0
  6 15  1  0  0  0  0
  7  8  1  0  0  0  0
  7 16  1  0  0  0  0
  7 17  1  0  0  0  0
  8  9  1  0  0  0  0
  8 18  1  0  0  0  0
  8 19  1  0  0  0  0
  9 10  1  0  0  0  0
  9 20  1  0  0  0  0
  9 21  1  0  0  0  0
 10 22  1  0  0  0  0
 10 23  1  0  0  0  0
M  CHG  1   1  -1
M  END
$$$$
