
 OpenBabel08282418153D

 35 35  0  0  1  0  0  0  0  0999 V2000
    2.6989    0.6834    1.5674 C   0  0  0  0  0  0  0  0  0  0  0  0
    2.3330    0.0564    0.2200 C   0  0  0  0  0  0  0  0  0  0  0  0
    0.8086   -0.0676    0.1047 C   0  0  0  0  0  0  0  0  0  0  0  0
    2.8944    0.8675   -0.9711 C   0  0  0  0  0  0  0  0  0  0  0  0
    4.4032    0.9895   -0.9856 C   0  0  0  0  0  0  0  0  0  0  0  0
    5.2154   -0.1498   -1.0330 C   0  0  0  0  0  0  0  0  0  0  0  0
    6.6069   -0.0368   -0.9491 C   0  0  0  0  0  0  0  0  0  0  0  0
    7.2166    1.2182   -0.8465 C   0  0  0  0  0  0  0  0  0  0  0  0
    6.4065    2.3599   -0.8545 C   0  0  0  0  0  0  0  0  0  0  0  0
    5.0130    2.2468   -0.9247 C   0  0  0  0  0  0  0  0  0  0  0  0
    8.7098    1.3507   -0.6462 C   0  0  0  0  0  0  0  0  0  0  0  0
    9.5789    0.7100   -1.7391 C   0  0  1  0  0  0  0  0  0  0  0  0
    9.3908    1.3647   -3.1054 C   0  0  0  0  0  0  0  0  0  0  0  0
   11.0490    0.8065   -1.3695 C   0  0  0  0  0  0  0  0  0  0  0  0
   11.4784    1.2913   -0.3296 O   0  0  0  0  0  0  0  0  0  0  0  0
    2.2615    0.1112    2.3920 H   0  0  0  0  0  0  0  0  0  0  0  0
    2.3349    1.7133    1.6383 H   0  0  0  0  0  0  0  0  0  0  0  0
    3.7826    0.6912    1.7213 H   0  0  0  0  0  0  0  0  0  0  0  0
    2.7472   -0.9600    0.2022 H   0  0  0  0  0  0  0  0  0  0  0  0
    0.3432    0.8988   -0.1128 H   0  0  0  0  0  0  0  0  0  0  0  0
    0.3705   -0.4525    1.0307 H   0  0  0  0  0  0  0  0  0  0  0  0
    0.5418   -0.7599   -0.7007 H   0  0  0  0  0  0  0  0  0  0  0  0
    2.4469    1.8715   -0.9614 H   0  0  0  0  0  0  0  0  0  0  0  0
    2.5807    0.4073   -1.9160 H   0  0  0  0  0  0  0  0  0  0  0  0
    4.7698   -1.1399   -1.1001 H   0  0  0  0  0  0  0  0  0  0  0  0
    7.2039   -0.9453   -0.9370 H   0  0  0  0  0  0  0  0  0  0  0  0
    6.8480    3.3512   -0.7807 H   0  0  0  0  0  0  0  0  0  0  0  0
    4.4105    3.1511   -0.9009 H   0  0  0  0  0  0  0  0  0  0  0  0
    8.9450    0.8948    0.3251 H   0  0  0  0  0  0  0  0  0  0  0  0
    8.9786    2.4103   -0.5443 H   0  0  0  0  0  0  0  0  0  0  0  0
    9.3537   -0.3596   -1.8226 H   0  0  0  0  0  0  0  0  0  0  0  0
    9.7267    2.4075   -3.0963 H   0  0  0  0  0  0  0  0  0  0  0  0
    8.3449    1.3417   -3.4247 H   0  0  0  0  0  0  0  0  0  0  0  0
    9.9797    0.8397   -3.8665 H   0  0  0  0  0  0  0  0  0  0  0  0
   11.7481    0.3644   -2.1008 H   0  0  0  0  0  0  0  0  0  0  0  0
  1  2  1  0  0  0  0
  1 16  1  0  0  0  0
  1 17  1  0  0  0  0
  1 18  1  0  0  0  0
  2  3  1  0  0  0  0
  2  4  1  0  0  0  0
  2 19  1  0  0  0  0
  3 20  1  0  0  0  0
  3 21  1  0  0  0  0
  3 22  1  0  0  0  0
  4  5  1  0  0  0  0
  4 23  1  0  0  0  0
  4 24  1  0  0  0  0
  5  6  2  0  0  0  0
  5 10  1  0  0  0  0
  6  7  1  0  0  0  0
  6 25  1  0  0  0  0
  7  8  2  0  0  0  0
  7 26  1  0  0  0  0
  8  9  1  0  0  0  0
  8 11  1  0  0  0  0
  9 10  2  0  0  0  0
  9 27  1  0  0  0  0
 10 28  1  0  0  0  0
 11 12  1  0  0  0  0
 11 29  1  0  0  0  0
 11 30  1  0  0  0  0
 12 13  1  0  0  0  0
 12 14  1  0  0  0  0
 12 31  1  6  0  0  0
 13 32  1  0  0  0  0
 13 33  1  0  0  0  0
 13 34  1  0  0  0  0
 14 15  2  0  0  0  0
 14 35  1  0  0  0  0
M  END
$$$$
