Test
 OpenBabel07142515253D

 27 27  0     0  0  0  0  0  0999 V2000
   -2.6041   -1.1818    0.0122 C   0  0  0  0  0  0  0  0  0  0  0  0
   -1.2506   -0.4474    0.0347 C   0  0  0  0  0  0  0  0  0  0  0  0
   -0.3448   -0.7401    0.9778 C   0  0  0  0  0  0  0  0  0  0  0  0
    0.9875    0.0323    0.9764 C   0  0  0  0  0  0  0  0  0  0  0  0
    1.8115   -0.1915    1.8196 O   0  0  0  0  0  0  0  0  0  0  0  0
    1.2102    1.1727   -0.0344 C   0  0  0  0  0  0  0  0  0  0  0  0
    0.4204    0.9102   -1.3301 C   0  0  0  0  0  0  0  0  0  0  0  0
   -1.0670    0.5982   -1.0810 C   0  0  0  0  0  0  0  0  0  0  0  0
    0.5359    2.1253   -2.2692 C   0  0  0  0  0  0  0  0  0  0  0  0
   -0.2292    1.9421   -3.5931 C   0  0  0  0  0  0  0  0  0  0  0  0
    1.9981    2.5023   -2.5711 C   0  0  0  0  0  0  0  0  0  0  0  0
   -2.4348   -2.2520   -0.1061 H   0  0  0  0  0  0  0  0  0  0  0  0
   -3.1997   -0.8145   -0.8235 H   0  0  0  0  0  0  0  0  0  0  0  0
   -3.1352   -0.9971    0.9460 H   0  0  0  0  0  0  0  0  0  0  0  0
   -0.5251   -1.5145    1.7233 H   0  0  0  0  0  0  0  0  0  0  0  0
    2.2749    1.2250   -0.2619 H   0  0  0  0  0  0  0  0  0  0  0  0
    0.8879    2.1172    0.4038 H   0  0  0  0  0  0  0  0  0  0  0  0
    0.8659    0.0383   -1.8090 H   0  0  0  0  0  0  0  0  0  0  0  0
   -1.5085    0.2025   -1.9956 H   0  0  0  0  0  0  0  0  0  0  0  0
   -1.5814    1.5160   -0.7961 H   0  0  0  0  0  0  0  0  0  0  0  0
    0.0713    2.9217   -1.6878 H   0  0  0  0  0  0  0  0  0  0  0  0
    0.2414    1.1725   -4.2049 H   0  0  0  0  0  0  0  0  0  0  0  0
   -0.1816    2.8985   -4.1138 H   0  0  0  0  0  0  0  0  0  0  0  0
   -1.2715    1.6776   -3.4152 H   0  0  0  0  0  0  0  0  0  0  0  0
    2.4602    1.6528   -3.0741 H   0  0  0  0  0  0  0  0  0  0  0  0
    2.5629    2.7417   -1.6701 H   0  0  0  0  0  0  0  0  0  0  0  0
    2.0027    3.3598   -3.2439 H   0  0  0  0  0  0  0  0  0  0  0  0
  1  2 1.00  0  0  0  0
  1 12 1.00  0  0  0  0
  1 13 1.00  0  0  0  0
  1 14 1.00  0  0  0  0
  2  3 2.00  0  0  0  0
  2  8 1.00  0  0  0  0
  3  4 1.00  0  0  0  0
  3 15 1.00  0  0  0  0
  4  5 2.00  0  0  0  0
  4  6 1.00  0  0  0  0
  6  7 1.00  0  0  0  0
  6 16 1.00  0  0  0  0
  6 17 1.00  0  0  0  0
  7  9 1.00  0  0  0  0
  7 18 1.00  0  0  0  0
  8  7 1.00  0  0  0  0
  8 19 1.00  0  0  0  0
  8 20 1.00  0  0  0  0
  9 10 1.00  0  0  0  0
  9 11 1.00  0  0  0  0
  9 21 1.00  0  0  0  0
 10 22 1.00  0  0  0  0
 10 23 1.00  0  0  0  0
 10 24 1.00  0  0  0  0
 11 25 1.00  0  0  0  0
 11 26 1.00  0  0  0  0
 11 27 1.00  0  0  0  0
M  END

