
 OpenBabel08312400123D

 31 30  0  0  0  0  0  0  0  0999 V2000
    0.9022    0.0735   -0.0340 C   0  0  0  0  0  0  0  0  0  0  0  0
    2.4209    0.0677   -0.0456 C   0  0  0  0  0  0  0  0  0  0  0  0
    2.9538   -0.6371   -1.2878 C   0  0  0  0  0  0  0  0  0  0  0  0
    4.4792   -0.6424   -1.3021 C   0  0  0  0  0  0  0  0  0  0  0  0
    5.0034   -1.3466   -2.5482 C   0  0  0  0  0  0  0  0  0  0  0  0
    6.5277   -1.3558   -2.5649 C   0  0  0  0  0  0  0  0  0  0  0  0
    7.0464   -2.0611   -3.8132 C   0  0  0  0  0  0  0  0  0  0  0  0
    8.5693   -2.0716   -3.8325 C   0  0  0  0  0  0  0  0  0  0  0  0
    9.1008   -2.7728   -5.0743 C   0  0  0  0  0  0  0  0  0  0  0  0
   10.6096   -2.7826   -5.0919 C   0  0  0  0  0  0  0  0  0  0  0  0
   11.3254   -2.2933   -4.2255 O   0  0  0  0  0  0  0  0  0  0  0  0
    0.5308    0.5810    0.8611 H   0  0  0  0  0  0  0  0  0  0  0  0
    0.5079   -0.9479   -0.0367 H   0  0  0  0  0  0  0  0  0  0  0  0
    0.5078    0.5960   -0.9119 H   0  0  0  0  0  0  0  0  0  0  0  0
    2.7888   -0.4362    0.8562 H   0  0  0  0  0  0  0  0  0  0  0  0
    2.7877    1.0999   -0.0137 H   0  0  0  0  0  0  0  0  0  0  0  0
    2.5794   -0.1332   -2.1885 H   0  0  0  0  0  0  0  0  0  0  0  0
    2.5823   -1.6687   -1.3174 H   0  0  0  0  0  0  0  0  0  0  0  0
    4.8561   -1.1488   -0.4049 H   0  0  0  0  0  0  0  0  0  0  0  0
    4.8541    0.3880   -1.2743 H   0  0  0  0  0  0  0  0  0  0  0  0
    4.6276   -0.8400   -3.4456 H   0  0  0  0  0  0  0  0  0  0  0  0
    4.6279   -2.3768   -2.5772 H   0  0  0  0  0  0  0  0  0  0  0  0
    6.9043   -1.8627   -1.6678 H   0  0  0  0  0  0  0  0  0  0  0  0
    6.9042   -0.3258   -2.5361 H   0  0  0  0  0  0  0  0  0  0  0  0
    6.6686   -1.5528   -4.7087 H   0  0  0  0  0  0  0  0  0  0  0  0
    6.6687   -3.0906   -3.8399 H   0  0  0  0  0  0  0  0  0  0  0  0
    8.9476   -2.5748   -2.9338 H   0  0  0  0  0  0  0  0  0  0  0  0
    8.9467   -1.0419   -3.7998 H   0  0  0  0  0  0  0  0  0  0  0  0
    8.7530   -2.2664   -5.9809 H   0  0  0  0  0  0  0  0  0  0  0  0
    8.7531   -3.8106   -5.1089 H   0  0  0  0  0  0  0  0  0  0  0  0
   11.0632   -3.2779   -5.9690 H   0  0  0  0  0  0  0  0  0  0  0  0
  1  2  1  0  0  0  0
  1 12  1  0  0  0  0
  1 13  1  0  0  0  0
  1 14  1  0  0  0  0
  2  3  1  0  0  0  0
  2 15  1  0  0  0  0
  2 16  1  0  0  0  0
  3  4  1  0  0  0  0
  3 17  1  0  0  0  0
  3 18  1  0  0  0  0
  4  5  1  0  0  0  0
  4 19  1  0  0  0  0
  4 20  1  0  0  0  0
  5  6  1  0  0  0  0
  5 21  1  0  0  0  0
  5 22  1  0  0  0  0
  6  7  1  0  0  0  0
  6 23  1  0  0  0  0
  6 24  1  0  0  0  0
  7  8  1  0  0  0  0
  7 25  1  0  0  0  0
  7 26  1  0  0  0  0
  8  9  1  0  0  0  0
  8 27  1  0  0  0  0
  8 28  1  0  0  0  0
  9 10  1  0  0  0  0
  9 29  1  0  0  0  0
  9 30  1  0  0  0  0
 10 11  2  0  0  0  0
 10 31  1  0  0  0  0
M  END
$$$$
