
 OpenBabel01072523333D

 38 37  0  0  0  0  0  0  0  0999 V2000
    8.6715    1.0973    3.7079 C   0  0  0  0  0  0  0  0  0  0  0  0
    8.2583    0.8477    2.2929 C   0  0  0  0  0  0  0  0  0  0  0  0
    8.9845    0.3476    1.4527 O   0  0  0  0  0  0  0  0  0  0  0  0
    6.9765    1.2680    2.0898 O   0  0  0  0  0  0  0  0  0  0  0  0
    6.5088    1.0780    0.7462 C   0  0  0  0  0  0  0  0  0  0  0  0
    7.0255    2.1990   -0.1356 C   0  0  0  0  0  0  0  0  0  0  0  0
    6.5637    2.0306   -1.5789 C   0  0  0  0  0  0  0  0  0  0  0  0
    7.0990    3.1458   -2.4736 C   0  0  0  0  0  0  0  0  0  0  0  0
    8.6267    3.1628   -2.4965 C   0  0  0  0  0  0  0  0  0  0  0  0
    9.1537    4.2765   -3.3863 C   0  0  0  0  0  0  0  0  0  0  0  0
   10.6782    4.2861   -3.3891 C   0  0  0  0  0  0  0  0  0  0  0  0
   11.2036    5.4038   -4.2847 C   0  0  0  0  0  0  0  0  0  0  0  0
   12.7283    5.4241   -4.3010 C   0  0  0  0  0  0  0  0  0  0  0  0
   13.2452    6.5378   -5.1939 C   0  0  0  0  0  0  0  0  0  0  0  0
    9.7019    0.7524    3.8366 H   0  0  0  0  0  0  0  0  0  0  0  0
    8.0266    0.5336    4.3867 H   0  0  0  0  0  0  0  0  0  0  0  0
    8.6321    2.1667    3.9285 H   0  0  0  0  0  0  0  0  0  0  0  0
    5.4128    1.0843    0.7597 H   0  0  0  0  0  0  0  0  0  0  0  0
    6.8250    0.0981    0.3713 H   0  0  0  0  0  0  0  0  0  0  0  0
    8.1176    2.1998   -0.0773 H   0  0  0  0  0  0  0  0  0  0  0  0
    6.7067    3.1700    0.2620 H   0  0  0  0  0  0  0  0  0  0  0  0
    5.4689    2.0299   -1.6159 H   0  0  0  0  0  0  0  0  0  0  0  0
    6.8986    1.0603   -1.9662 H   0  0  0  0  0  0  0  0  0  0  0  0
    6.7204    4.1127   -2.1203 H   0  0  0  0  0  0  0  0  0  0  0  0
    6.7179    3.0048   -3.4924 H   0  0  0  0  0  0  0  0  0  0  0  0
    8.9997    2.1906   -2.8429 H   0  0  0  0  0  0  0  0  0  0  0  0
    9.0223    3.3184   -1.4880 H   0  0  0  0  0  0  0  0  0  0  0  0
    8.7776    5.2423   -3.0242 H   0  0  0  0  0  0  0  0  0  0  0  0
    8.7779    4.1397   -4.4051 H   0  0  0  0  0  0  0  0  0  0  0  0
   11.0531    3.3186   -3.7441 H   0  0  0  0  0  0  0  0  0  0  0  0
   11.0526    4.4231   -2.3671 H   0  0  0  0  0  0  0  0  0  0  0  0
   10.8245    6.3689   -3.9276 H   0  0  0  0  0  0  0  0  0  0  0  0
   10.8245    5.2651   -5.3043 H   0  0  0  0  0  0  0  0  0  0  0  0
   13.1110    4.4619   -4.6610 H   0  0  0  0  0  0  0  0  0  0  0  0
   13.1111    5.5664   -3.2835 H   0  0  0  0  0  0  0  0  0  0  0  0
   12.8996    6.4045   -6.2242 H   0  0  0  0  0  0  0  0  0  0  0  0
   14.3395    6.5443   -5.1991 H   0  0  0  0  0  0  0  0  0  0  0  0
   12.8996    7.5144   -4.8399 H   0  0  0  0  0  0  0  0  0  0  0  0
  1  2  1  0  0  0  0
  1 15  1  0  0  0  0
  1 16  1  0  0  0  0
  1 17  1  0  0  0  0
  2  3  2  0  0  0  0
  2  4  1  0  0  0  0
  4  5  1  0  0  0  0
  5  6  1  0  0  0  0
  5 18  1  0  0  0  0
  5 19  1  0  0  0  0
  6  7  1  0  0  0  0
  6 20  1  0  0  0  0
  6 21  1  0  0  0  0
  7  8  1  0  0  0  0
  7 22  1  0  0  0  0
  7 23  1  0  0  0  0
  8  9  1  0  0  0  0
  8 24  1  0  0  0  0
  8 25  1  0  0  0  0
  9 10  1  0  0  0  0
  9 26  1  0  0  0  0
  9 27  1  0  0  0  0
 10 11  1  0  0  0  0
 10 28  1  0  0  0  0
 10 29  1  0  0  0  0
 11 12  1  0  0  0  0
 11 30  1  0  0  0  0
 11 31  1  0  0  0  0
 12 13  1  0  0  0  0
 12 32  1  0  0  0  0
 12 33  1  0  0  0  0
 13 14  1  0  0  0  0
 13 34  1  0  0  0  0
 13 35  1  0  0  0  0
 14 36  1  0  0  0  0
 14 37  1  0  0  0  0
 14 38  1  0  0  0  0
M  END
$$$$
