
 OpenBabel09122404133D

 30 30  0  0  1  0  0  0  0  0999 V2000
   10.5523   -4.1064    3.7318 C   0  0  0  0  0  0  0  0  0  0  0  0
   10.1907   -2.7530    3.1385 C   0  0  0  0  0  0  0  0  0  0  0  0
    8.7571   -2.3593    3.4952 C   0  0  0  0  0  0  0  0  0  0  0  0
    8.3772   -0.9966    2.9055 C   0  0  0  0  0  0  0  0  0  0  0  0
    6.9303   -0.6341    3.2716 C   0  0  0  0  0  0  0  0  0  0  0  0
    6.4760    0.7168    2.7098 C   0  0  1  0  0  0  0  0  0  0  0  0
    5.0341    1.0316    3.1142 C   0  0  0  0  0  0  0  0  0  0  0  0
    4.5993    2.3787    2.5392 C   0  0  0  0  0  0  0  0  0  0  0  0
    5.7732    3.2592    2.1379 C   0  0  0  0  0  0  0  0  0  0  0  0
    6.9759    3.0521    3.0184 C   0  0  0  0  0  0  0  0  0  0  0  0
    7.6410    3.9806    3.4670 O   0  0  0  0  0  0  0  0  0  0  0  0
    7.3314    1.7559    3.2239 O   0  0  0  0  0  0  0  0  0  0  0  0
   11.5800   -4.3753    3.4692 H   0  0  0  0  0  0  0  0  0  0  0  0
    9.8884   -4.8901    3.3523 H   0  0  0  0  0  0  0  0  0  0  0  0
   10.4733   -4.0896    4.8235 H   0  0  0  0  0  0  0  0  0  0  0  0
   10.3069   -2.7950    2.0495 H   0  0  0  0  0  0  0  0  0  0  0  0
   10.8907   -1.9969    3.5123 H   0  0  0  0  0  0  0  0  0  0  0  0
    8.6472   -2.3305    4.5862 H   0  0  0  0  0  0  0  0  0  0  0  0
    8.0670   -3.1255    3.1220 H   0  0  0  0  0  0  0  0  0  0  0  0
    8.4827   -1.0309    1.8144 H   0  0  0  0  0  0  0  0  0  0  0  0
    9.0696   -0.2319    3.2755 H   0  0  0  0  0  0  0  0  0  0  0  0
    6.8303   -0.6389    4.3624 H   0  0  0  0  0  0  0  0  0  0  0  0
    6.2669   -1.4173    2.8795 H   0  0  0  0  0  0  0  0  0  0  0  0
    6.5698    0.6920    1.6186 H   0  0  0  0  0  0  0  0  0  0  0  0
    4.9636    1.0928    4.2094 H   0  0  0  0  0  0  0  0  0  0  0  0
    4.3446    0.2456    2.7913 H   0  0  0  0  0  0  0  0  0  0  0  0
    3.9700    2.8990    3.2728 H   0  0  0  0  0  0  0  0  0  0  0  0
    3.9647    2.2174    1.6591 H   0  0  0  0  0  0  0  0  0  0  0  0
    5.4731    4.3119    2.1831 H   0  0  0  0  0  0  0  0  0  0  0  0
    6.0779    3.0570    1.1047 H   0  0  0  0  0  0  0  0  0  0  0  0
  1  2  1  0  0  0  0
  1 13  1  0  0  0  0
  1 14  1  0  0  0  0
  1 15  1  0  0  0  0
  2  3  1  0  0  0  0
  2 16  1  0  0  0  0
  2 17  1  0  0  0  0
  3  4  1  0  0  0  0
  3 18  1  0  0  0  0
  3 19  1  0  0  0  0
  4  5  1  0  0  0  0
  4 20  1  0  0  0  0
  4 21  1  0  0  0  0
  5 22  1  0  0  0  0
  5 23  1  0  0  0  0
  6  7  1  0  0  0  0
  6 12  1  0  0  0  0
  6  5  1  0  0  0  0
  6 24  1  6  0  0  0
  7  8  1  0  0  0  0
  7 25  1  0  0  0  0
  7 26  1  0  0  0  0
  8  9  1  0  0  0  0
  8 27  1  0  0  0  0
  8 28  1  0  0  0  0
  9 10  1  0  0  0  0
  9 29  1  0  0  0  0
  9 30  1  0  0  0  0
 10 11  2  0  0  0  0
 10 12  1  0  0  0  0
M  END
$$$$
