
 OpenBabel11032407493D

 28 28  0  0  1  0  0  0  0  0999 V2000
    0.8385   -0.0095   -0.0408 C   0  0  0  0  0  0  0  0  0  0  0  0
    2.3577    0.0203   -0.0383 C   0  0  0  0  0  0  0  0  0  0  0  0
    2.9055    1.2607   -0.7468 C   0  0  0  0  0  0  0  0  0  0  0  0
    4.4352    1.2645   -0.7231 C   0  0  0  0  0  0  0  0  0  0  0  0
    5.0218    2.4907   -1.4322 C   0  0  0  0  0  0  0  0  0  0  0  0
    6.5578    2.4871   -1.4040 C   0  0  1  0  0  0  0  0  0  0  0  0
    7.1322    3.7185   -2.1072 C   0  0  0  0  0  0  0  0  0  0  0  0
    8.6059    3.7852   -1.8615 C   0  0  0  0  0  0  0  0  0  0  0  0
    9.1474    3.2124   -0.7780 C   0  0  0  0  0  0  0  0  0  0  0  0
    8.3130    2.5647    0.2518 C   0  0  0  0  0  0  0  0  0  0  0  0
    8.7998    2.2124    1.3181 O   0  0  0  0  0  0  0  0  0  0  0  0
    6.9921    2.4392   -0.0280 O   0  0  0  0  0  0  0  0  0  0  0  0
    0.4779   -0.9097    0.4668 H   0  0  0  0  0  0  0  0  0  0  0  0
    0.4471   -0.0162   -1.0631 H   0  0  0  0  0  0  0  0  0  0  0  0
    0.4281    0.8612    0.4804 H   0  0  0  0  0  0  0  0  0  0  0  0
    2.7348   -0.8844   -0.5299 H   0  0  0  0  0  0  0  0  0  0  0  0
    2.7141   -0.0030    0.9983 H   0  0  0  0  0  0  0  0  0  0  0  0
    2.5265    2.1645   -0.2542 H   0  0  0  0  0  0  0  0  0  0  0  0
    2.5495    1.2827   -1.7837 H   0  0  0  0  0  0  0  0  0  0  0  0
    4.8109    0.3527   -1.2032 H   0  0  0  0  0  0  0  0  0  0  0  0
    4.7723    1.2418    0.3201 H   0  0  0  0  0  0  0  0  0  0  0  0
    4.6478    3.3942   -0.9350 H   0  0  0  0  0  0  0  0  0  0  0  0
    4.6733    2.5177   -2.4721 H   0  0  0  0  0  0  0  0  0  0  0  0
    6.9159    1.5717   -1.8951 H   0  0  0  0  0  0  0  0  0  0  0  0
    6.6788    4.6424   -1.7304 H   0  0  0  0  0  0  0  0  0  0  0  0
    6.9347    3.6596   -3.1829 H   0  0  0  0  0  0  0  0  0  0  0  0
    9.2323    4.3167   -2.5705 H   0  0  0  0  0  0  0  0  0  0  0  0
   10.2083    3.2599   -0.5670 H   0  0  0  0  0  0  0  0  0  0  0  0
  1  2  1  0  0  0  0
  1 13  1  0  0  0  0
  1 14  1  0  0  0  0
  1 15  1  0  0  0  0
  2  3  1  0  0  0  0
  2 16  1  0  0  0  0
  2 17  1  0  0  0  0
  3  4  1  0  0  0  0
  3 18  1  0  0  0  0
  3 19  1  0  0  0  0
  4  5  1  0  0  0  0
  4 20  1  0  0  0  0
  4 21  1  0  0  0  0
  5  6  1  0  0  0  0
  5 22  1  0  0  0  0
  5 23  1  0  0  0  0
  6  7  1  0  0  0  0
  6 12  1  0  0  0  0
  6 24  1  6  0  0  0
  7  8  1  0  0  0  0
  7 25  1  0  0  0  0
  7 26  1  0  0  0  0
  8  9  2  0  0  0  0
  8 27  1  0  0  0  0
  9 10  1  0  0  0  0
  9 28  1  0  0  0  0
 10 11  2  0  0  0  0
 10 12  1  0  0  0  0
M  END
$$$$
