
 OpenBabel10132513093D

 18 17  0  0  0  0  0  0  0  0999 V2000
    1.0431    0.0746    0.0076 S   0  0  0  0  0  0  0  0  0  0  0  0
    0.6286    0.2844    2.0144 S   0  0  0  0  0  0  0  0  0  0  0  0
    1.2171    1.9752    2.3300 C   0  0  0  0  0  0  0  0  0  0  0  0
    0.9727    2.3311    3.7633 C   0  0  0  0  0  0  0  0  0  0  0  0
    1.9430    2.5718    4.6560 C   0  0  0  0  0  0  0  0  0  0  0  0
    2.8515   -0.1109    0.0300 C   0  0  0  0  0  0  0  0  0  0  0  0
    3.3540   -0.3126   -1.3666 C   0  0  0  0  0  0  0  0  0  0  0  0
    4.1453    0.5539   -2.0134 C   0  0  0  0  0  0  0  0  0  0  0  0
    0.6888    2.6821    1.6833 H   0  0  0  0  0  0  0  0  0  0  0  0
    2.2865    2.0283    2.1036 H   0  0  0  0  0  0  0  0  0  0  0  0
   -0.0657    2.4179    4.0762 H   0  0  0  0  0  0  0  0  0  0  0  0
    2.9944    2.5022    4.3932 H   0  0  0  0  0  0  0  0  0  0  0  0
    1.7000    2.8400    5.6794 H   0  0  0  0  0  0  0  0  0  0  0  0
    3.1316   -0.9703    0.6464 H   0  0  0  0  0  0  0  0  0  0  0  0
    3.2955    0.7893    0.4654 H   0  0  0  0  0  0  0  0  0  0  0  0
    3.0607   -1.2358   -1.8634 H   0  0  0  0  0  0  0  0  0  0  0  0
    4.4701    1.4850   -1.5600 H   0  0  0  0  0  0  0  0  0  0  0  0
    4.4850    0.3421   -3.0235 H   0  0  0  0  0  0  0  0  0  0  0  0
  1  2  1  0  0  0  0
  1  6  1  0  0  0  0
  2  3  1  0  0  0  0
  3  4  1  0  0  0  0
  3  9  1  0  0  0  0
  3 10  1  0  0  0  0
  4  5  2  0  0  0  0
  4 11  1  0  0  0  0
  5 12  1  0  0  0  0
  5 13  1  0  0  0  0
  6  7  1  0  0  0  0
  6 14  1  0  0  0  0
  6 15  1  0  0  0  0
  7  8  2  0  0  0  0
  7 16  1  0  0  0  0
  8 17  1  0  0  0  0
  8 18  1  0  0  0  0
M  END
$$$$
