
 OpenBabel09172417543D

 30 30  0  0  0  0  0  0  0  0999 V2000
    0.8852   -0.1137   -0.1992 C   0  0  0  0  0  0  0  0  0  0  0  0
    2.4012   -0.0890   -0.1079 C   0  0  0  0  0  0  0  0  0  0  0  0
    2.9283    1.3442   -0.0972 C   0  0  0  0  0  0  0  0  0  0  0  0
    4.4521    1.3695   -0.0077 C   0  0  0  0  0  0  0  0  0  0  0  0
    4.9796    2.8042    0.0039 C   0  0  0  0  0  0  0  0  0  0  0  0
    6.4616    2.8152    0.1009 C   0  0  0  0  0  0  0  0  0  0  0  0
    7.2736    2.8407    1.1668 C   0  0  0  0  0  0  0  0  0  0  0  0
    8.7344    2.8527    0.8234 C   0  0  0  0  0  0  0  0  0  0  0  0
    8.7889    2.7455   -0.6952 C   0  0  0  0  0  0  0  0  0  0  0  0
    7.3424    2.7890   -1.0837 C   0  0  0  0  0  0  0  0  0  0  0  0
    6.9276    2.7816   -2.2343 O   0  0  0  0  0  0  0  0  0  0  0  0
    6.8594    2.8337    2.6001 C   0  0  0  0  0  0  0  0  0  0  0  0
    0.5221   -1.1458   -0.2116 H   0  0  0  0  0  0  0  0  0  0  0  0
    0.5410    0.3804   -1.1134 H   0  0  0  0  0  0  0  0  0  0  0  0
    0.4340    0.3967    0.6578 H   0  0  0  0  0  0  0  0  0  0  0  0
    2.8245   -0.6361   -0.9584 H   0  0  0  0  0  0  0  0  0  0  0  0
    2.7177   -0.6104    0.8032 H   0  0  0  0  0  0  0  0  0  0  0  0
    2.5014    1.8870    0.7548 H   0  0  0  0  0  0  0  0  0  0  0  0
    2.6055    1.8635   -1.0074 H   0  0  0  0  0  0  0  0  0  0  0  0
    4.8806    0.8203   -0.8555 H   0  0  0  0  0  0  0  0  0  0  0  0
    4.7715    0.8486    0.9045 H   0  0  0  0  0  0  0  0  0  0  0  0
    4.5427    3.3540    0.8461 H   0  0  0  0  0  0  0  0  0  0  0  0
    4.6561    3.3357   -0.8995 H   0  0  0  0  0  0  0  0  0  0  0  0
    9.2603    2.0102    1.2890 H   0  0  0  0  0  0  0  0  0  0  0  0
    9.2044    3.7803    1.1651 H   0  0  0  0  0  0  0  0  0  0  0  0
    9.2264    1.7949   -1.0140 H   0  0  0  0  0  0  0  0  0  0  0  0
    9.3311    3.5836   -1.1405 H   0  0  0  0  0  0  0  0  0  0  0  0
    5.7726    2.7817    2.7184 H   0  0  0  0  0  0  0  0  0  0  0  0
    7.2083    3.7398    3.1032 H   0  0  0  0  0  0  0  0  0  0  0  0
    7.2847    1.9638    3.1103 H   0  0  0  0  0  0  0  0  0  0  0  0
  1  2  1  0  0  0  0
  1 13  1  0  0  0  0
  1 14  1  0  0  0  0
  1 15  1  0  0  0  0
  2  3  1  0  0  0  0
  2 16  1  0  0  0  0
  2 17  1  0  0  0  0
  3  4  1  0  0  0  0
  3 18  1  0  0  0  0
  3 19  1  0  0  0  0
  4  5  1  0  0  0  0
  4 20  1  0  0  0  0
  4 21  1  0  0  0  0
  5  6  1  0  0  0  0
  5 22  1  0  0  0  0
  5 23  1  0  0  0  0
  6  7  2  0  0  0  0
  6 10  1  0  0  0  0
  7  8  1  0  0  0  0
  7 12  1  0  0  0  0
  8  9  1  0  0  0  0
  8 24  1  0  0  0  0
  8 25  1  0  0  0  0
  9 10  1  0  0  0  0
  9 26  1  0  0  0  0
  9 27  1  0  0  0  0
 10 11  2  0  0  0  0
 12 28  1  0  0  0  0
 12 29  1  0  0  0  0
 12 30  1  0  0  0  0
M  END
$$$$
