
 OpenBabel10142509113D

 34 34  0  0  0  0  0  0  0  0999 V2000
    0.6555    1.2026   -0.3375 C   0  0  0  0  0  0  0  0  0  0  0  0
    2.0415    0.9003   -0.9039 C   0  0  0  0  0  0  0  0  0  0  0  0
    3.1093    1.3389    0.0871 C   0  0  0  0  0  0  0  0  0  0  0  0
    4.5479    1.2149   -0.3999 C   0  0  0  0  0  0  0  0  0  0  0  0
    5.1777    0.2053   -0.0674 O   0  0  0  0  0  0  0  0  0  0  0  0
    5.2354    2.3139   -1.2097 C   0  0  0  0  0  0  0  0  0  0  0  0
    6.2510    1.9508   -2.0361 C   0  0  0  0  0  0  0  0  0  0  0  0
    6.7151    0.5510   -2.3871 C   0  0  0  0  0  0  0  0  0  0  0  0
    7.0908    2.9497   -2.6814 C   0  0  0  0  0  0  0  0  0  0  0  0
    6.9456    4.2595   -2.4843 C   0  0  0  0  0  0  0  0  0  0  0  0
    5.8895    4.8297   -1.6082 C   0  0  0  0  0  0  0  0  0  0  0  0
    4.8949    3.8010   -0.9446 C   0  0  0  0  0  0  0  0  0  0  0  0
    4.9557    4.1074    0.5714 C   0  0  0  0  0  0  0  0  0  0  0  0
    3.5078    4.1542   -1.5364 C   0  0  0  0  0  0  0  0  0  0  0  0
   -0.1294    0.8584   -1.0140 H   0  0  0  0  0  0  0  0  0  0  0  0
    0.5229    2.2796   -0.1821 H   0  0  0  0  0  0  0  0  0  0  0  0
    0.5124    0.7072    0.6313 H   0  0  0  0  0  0  0  0  0  0  0  0
    2.1659    1.4115   -1.8658 H   0  0  0  0  0  0  0  0  0  0  0  0
    2.1303   -0.1730   -1.0981 H   0  0  0  0  0  0  0  0  0  0  0  0
    3.0332    0.7136    0.9876 H   0  0  0  0  0  0  0  0  0  0  0  0
    2.8949    2.3392    0.4522 H   0  0  0  0  0  0  0  0  0  0  0  0
    5.9919   -0.2323   -2.1618 H   0  0  0  0  0  0  0  0  0  0  0  0
    7.6541    0.3262   -1.8666 H   0  0  0  0  0  0  0  0  0  0  0  0
    6.9038    0.4698   -3.4647 H   0  0  0  0  0  0  0  0  0  0  0  0
    7.9059    2.6067   -3.3144 H   0  0  0  0  0  0  0  0  0  0  0  0
    7.6299    4.9560   -2.9636 H   0  0  0  0  0  0  0  0  0  0  0  0
    5.3382    5.5613   -2.2150 H   0  0  0  0  0  0  0  0  0  0  0  0
    6.3944    5.4291   -0.8392 H   0  0  0  0  0  0  0  0  0  0  0  0
    5.9727    3.9496    0.9523 H   0  0  0  0  0  0  0  0  0  0  0  0
    4.3015    3.4907    1.1869 H   0  0  0  0  0  0  0  0  0  0  0  0
    4.6813    5.1495    0.7719 H   0  0  0  0  0  0  0  0  0  0  0  0
    3.4777    3.9394   -2.6119 H   0  0  0  0  0  0  0  0  0  0  0  0
    3.2868    5.2202   -1.4060 H   0  0  0  0  0  0  0  0  0  0  0  0
    2.6735    3.6272   -1.0801 H   0  0  0  0  0  0  0  0  0  0  0  0
  1  2  1  0  0  0  0
  1 15  1  0  0  0  0
  1 16  1  0  0  0  0
  1 17  1  0  0  0  0
  2  3  1  0  0  0  0
  2 18  1  0  0  0  0
  2 19  1  0  0  0  0
  3  4  1  0  0  0  0
  3 20  1  0  0  0  0
  3 21  1  0  0  0  0
  4  5  2  0  0  0  0
  4  6  1  0  0  0  0
  6  7  2  0  0  0  0
  6 12  1  0  0  0  0
  7  8  1  0  0  0  0
  7  9  1  0  0  0  0
  8 22  1  0  0  0  0
  8 23  1  0  0  0  0
  8 24  1  0  0  0  0
  9 10  2  0  0  0  0
  9 25  1  0  0  0  0
 10 11  1  0  0  0  0
 10 26  1  0  0  0  0
 11 12  1  0  0  0  0
 11 27  1  0  0  0  0
 11 28  1  0  0  0  0
 12 13  1  0  0  0  0
 12 14  1  0  0  0  0
 13 29  1  0  0  0  0
 13 30  1  0  0  0  0
 13 31  1  0  0  0  0
 14 32  1  0  0  0  0
 14 33  1  0  0  0  0
 14 34  1  0  0  0  0
M  END
$$$$
