
 OpenBabel08072500413D

 30 29  0  0  0  0  0  0  0  0999 V2000
    2.9581    2.6662    1.2473 C   0  0  0  0  0  0  0  0  0  0  0  0
    2.4713    1.4277    2.0004 C   0  0  0  0  0  0  0  0  0  0  0  0
    0.9419    1.3906    2.0122 C   0  0  0  0  0  0  0  0  0  0  0  0
    3.0283    0.1226    1.3985 C   0  0  0  0  0  0  0  0  0  0  0  0
    4.5593    0.0116    1.3762 C   0  0  0  0  0  0  0  0  0  0  0  0
    5.1905    0.0758    2.7713 C   0  0  0  0  0  0  0  0  0  0  0  0
    6.7315    0.0367    2.8008 C   0  0  0  0  0  0  0  0  0  0  0  0
    7.2977   -1.2391    2.1778 C   0  0  0  0  0  0  0  0  0  0  0  0
    7.3442    1.2748    2.1430 C   0  0  0  0  0  0  0  0  0  0  0  0
    7.1357    0.0669    4.1760 O   0  0  0  0  0  0  0  0  0  0  0  0
    2.5357    3.5763    1.6871 H   0  0  0  0  0  0  0  0  0  0  0  0
    2.6629    2.6313    0.1933 H   0  0  0  0  0  0  0  0  0  0  0  0
    4.0467    2.7630    1.2948 H   0  0  0  0  0  0  0  0  0  0  0  0
    2.7939    1.5122    3.0438 H   0  0  0  0  0  0  0  0  0  0  0  0
    0.5366    1.2727    1.0017 H   0  0  0  0  0  0  0  0  0  0  0  0
    0.5351    2.3154    2.4362 H   0  0  0  0  0  0  0  0  0  0  0  0
    0.5806    0.5579    2.6245 H   0  0  0  0  0  0  0  0  0  0  0  0
    2.6649    0.0167    0.3678 H   0  0  0  0  0  0  0  0  0  0  0  0
    2.6239   -0.7328    1.9549 H   0  0  0  0  0  0  0  0  0  0  0  0
    4.9713    0.7903    0.7275 H   0  0  0  0  0  0  0  0  0  0  0  0
    4.8155   -0.9454    0.9065 H   0  0  0  0  0  0  0  0  0  0  0  0
    4.7960   -0.7504    3.3794 H   0  0  0  0  0  0  0  0  0  0  0  0
    4.8732    0.9873    3.2914 H   0  0  0  0  0  0  0  0  0  0  0  0
    7.1100   -1.2908    1.1012 H   0  0  0  0  0  0  0  0  0  0  0  0
    6.8637   -2.1278    2.6501 H   0  0  0  0  0  0  0  0  0  0  0  0
    8.3816   -1.3027    2.3388 H   0  0  0  0  0  0  0  0  0  0  0  0
    7.1544    1.3104    1.0662 H   0  0  0  0  0  0  0  0  0  0  0  0
    8.4299    1.2989    2.2977 H   0  0  0  0  0  0  0  0  0  0  0  0
    6.9494    2.1909    2.5963 H   0  0  0  0  0  0  0  0  0  0  0  0
    6.7677   -0.7195    4.6143 H   0  0  0  0  0  0  0  0  0  0  0  0
  1  2  1  0  0  0  0
  1 11  1  0  0  0  0
  1 12  1  0  0  0  0
  1 13  1  0  0  0  0
  2  3  1  0  0  0  0
  2  4  1  0  0  0  0
  2 14  1  0  0  0  0
  3 15  1  0  0  0  0
  3 16  1  0  0  0  0
  3 17  1  0  0  0  0
  4  5  1  0  0  0  0
  4 18  1  0  0  0  0
  4 19  1  0  0  0  0
  5  6  1  0  0  0  0
  5 20  1  0  0  0  0
  5 21  1  0  0  0  0
  6  7  1  0  0  0  0
  6 22  1  0  0  0  0
  6 23  1  0  0  0  0
  7  8  1  0  0  0  0
  7  9  1  0  0  0  0
  7 10  1  0  0  0  0
  8 24  1  0  0  0  0
  8 25  1  0  0  0  0
  8 26  1  0  0  0  0
  9 27  1  0  0  0  0
  9 28  1  0  0  0  0
  9 29  1  0  0  0  0
 10 30  1  0  0  0  0
M  END
$$$$
