
 OpenBabel01032512203D

 10  9  0  0  0  0  0  0  0  0999 V2000
    1.1055    0.0619    0.0715 C   0  0  0  0  0  0  0  0  0  0  0  0
    2.8973    0.0292   -0.1782 S   0  0  0  0  0  0  0  0  0  0  0  0
    3.2727    1.9572   -0.7896 S   0  0  0  0  0  0  0  0  0  0  0  0
    2.7476    1.9062   -2.5205 C   0  0  0  0  0  0  0  0  0  0  0  0
    0.7895   -0.8875    0.5130 H   0  0  0  0  0  0  0  0  0  0  0  0
    0.5911    0.1821   -0.8848 H   0  0  0  0  0  0  0  0  0  0  0  0
    0.8211    0.8694    0.7514 H   0  0  0  0  0  0  0  0  0  0  0  0
    3.0060    2.8549   -2.9984 H   0  0  0  0  0  0  0  0  0  0  0  0
    1.6651    1.7738   -2.5851 H   0  0  0  0  0  0  0  0  0  0  0  0
    3.2538    1.0997   -3.0581 H   0  0  0  0  0  0  0  0  0  0  0  0
  1  2  1  0  0  0  0
  1  5  1  0  0  0  0
  1  6  1  0  0  0  0
  1  7  1  0  0  0  0
  2  3  1  0  0  0  0
  3  4  1  0  0  0  0
  4  8  1  0  0  0  0
  4  9  1  0  0  0  0
  4 10  1  0  0  0  0
M  END
$$$$
