
 OpenBabel09222418223D

  9  8  0  0  0  0  0  0  0  0999 V2000
    0.9734    0.0678    0.0666 C   0  0  0  0  0  0  0  0  0  0  0  0
    2.4903    0.0882    0.0627 C   0  0  0  0  0  0  0  0  0  0  0  0
    3.1126    1.7671    0.3544 S   0  0  0  0  0  0  0  0  0  0  0  0
    0.6145   -0.9559   -0.0826 H   0  0  0  0  0  0  0  0  0  0  0  0
    0.5617    0.6831   -0.7410 H   0  0  0  0  0  0  0  0  0  0  0  0
    0.5674    0.4254    1.0187 H   0  0  0  0  0  0  0  0  0  0  0  0
    2.8716   -0.2680   -0.8990 H   0  0  0  0  0  0  0  0  0  0  0  0
    2.8782   -0.5691    0.8470 H   0  0  0  0  0  0  0  0  0  0  0  0
    2.5627    2.3290   -0.7321 H   0  0  0  0  0  0  0  0  0  0  0  0
  1  2  1  0  0  0  0
  1  4  1  0  0  0  0
  1  5  1  0  0  0  0
  1  6  1  0  0  0  0
  2  3  1  0  0  0  0
  2  7  1  0  0  0  0
  2  8  1  0  0  0  0
  3  9  1  0  0  0  0
M  END
$$$$
