
 OpenBabel12012404093D

 24 24  0  0  0  0  0  0  0  0999 V2000
    3.6948   -0.4788   -0.7906 C   0  0  0  0  0  0  0  0  0  0  0  0
    2.5050   -0.0138    0.0336 C   0  0  0  0  0  0  0  0  0  0  0  0
    2.8289    1.1839    0.8905 C   0  0  0  0  0  0  0  0  0  0  0  0
    2.7174    2.4788    0.3644 C   0  0  0  0  0  0  0  0  0  0  0  0
    2.9815    3.5972    1.1592 C   0  0  0  0  0  0  0  0  0  0  0  0
    3.3437    3.4215    2.4915 C   0  0  0  0  0  0  0  0  0  0  0  0
    3.5050    2.1396    3.0183 C   0  0  0  0  0  0  0  0  0  0  0  0
    3.2478    1.0233    2.2187 C   0  0  0  0  0  0  0  0  0  0  0  0
    3.6286    4.4899    3.3674 O   0  0  0  0  0  0  0  0  0  0  0  0
    2.9473    5.7050    3.2885 C   0  0  0  0  0  0  0  0  0  0  0  0
    2.0644    6.0063    2.4979 O   0  0  0  0  0  0  0  0  0  0  0  0
    3.4450    6.6275    4.3633 C   0  0  0  0  0  0  0  0  0  0  0  0
    3.4148   -1.3444   -1.3999 H   0  0  0  0  0  0  0  0  0  0  0  0
    4.5323   -0.7719   -0.1490 H   0  0  0  0  0  0  0  0  0  0  0  0
    4.0455    0.3097   -1.4648 H   0  0  0  0  0  0  0  0  0  0  0  0
    2.1502   -0.8361    0.6669 H   0  0  0  0  0  0  0  0  0  0  0  0
    1.6695    0.2336   -0.6330 H   0  0  0  0  0  0  0  0  0  0  0  0
    2.4129    2.6262   -0.6697 H   0  0  0  0  0  0  0  0  0  0  0  0
    2.8885    4.5864    0.7223 H   0  0  0  0  0  0  0  0  0  0  0  0
    3.8208    2.0062    4.0491 H   0  0  0  0  0  0  0  0  0  0  0  0
    3.3658    0.0276    2.6406 H   0  0  0  0  0  0  0  0  0  0  0  0
    4.2431    6.1598    4.9463 H   0  0  0  0  0  0  0  0  0  0  0  0
    2.6191    6.8683    5.0381 H   0  0  0  0  0  0  0  0  0  0  0  0
    3.8405    7.5368    3.9039 H   0  0  0  0  0  0  0  0  0  0  0  0
  1  2  1  0  0  0  0
  1 13  1  0  0  0  0
  1 14  1  0  0  0  0
  1 15  1  0  0  0  0
  2  3  1  0  0  0  0
  2 16  1  0  0  0  0
  2 17  1  0  0  0  0
  3  4  2  0  0  0  0
  3  8  1  0  0  0  0
  4  5  1  0  0  0  0
  4 18  1  0  0  0  0
  5  6  2  0  0  0  0
  5 19  1  0  0  0  0
  6  7  1  0  0  0  0
  6  9  1  0  0  0  0
  7  8  2  0  0  0  0
  7 20  1  0  0  0  0
  8 21  1  0  0  0  0
  9 10  1  0  0  0  0
 10 11  2  0  0  0  0
 10 12  1  0  0  0  0
 12 22  1  0  0  0  0
 12 23  1  0  0  0  0
 12 24  1  0  0  0  0
M  END
$$$$
