
 OpenBabel02012508533D

 26 26  0  0  0  0  0  0  0  0999 V2000
    1.3008   -0.2777    0.4247 C   0  0  0  0  0  0  0  0  0  0  0  0
    0.4510   -1.3656    0.2217 C   0  0  0  0  0  0  0  0  0  0  0  0
   -0.9200   -1.1657    0.0288 C   0  0  0  0  0  0  0  0  0  0  0  0
   -1.4431    0.1264    0.0377 C   0  0  0  0  0  0  0  0  0  0  0  0
   -0.5883    1.2117    0.2459 C   0  0  0  0  0  0  0  0  0  0  0  0
    0.7802    1.0131    0.4384 C   0  0  0  0  0  0  0  0  0  0  0  0
   -2.7538    0.4705   -0.1398 O   0  0  0  0  0  0  0  0  0  0  0  0
   -3.6942   -0.5816   -0.3174 C   0  0  0  0  0  0  0  0  0  0  0  0
   -5.0991   -0.0002   -0.3193 C   0  0  0  0  0  0  0  0  0  0  0  0
   -5.3937    1.1732   -0.1301 O   0  0  0  0  0  0  0  0  0  0  0  0
   -6.0130   -0.9999   -0.4949 O   0  0  0  0  0  0  0  0  0  0  0  0
   -7.3638   -0.6649   -0.1184 C   0  0  0  0  0  0  0  0  0  0  0  0
   -8.0854    0.1930   -1.1562 C   0  0  0  0  0  0  0  0  0  0  0  0
   -8.2204   -0.5177   -2.3840 O   0  0  0  0  0  0  0  0  0  0  0  0
    2.3662   -0.4374    0.5703 H   0  0  0  0  0  0  0  0  0  0  0  0
    0.8596   -2.3717    0.2133 H   0  0  0  0  0  0  0  0  0  0  0  0
   -1.5443   -2.0385   -0.1266 H   0  0  0  0  0  0  0  0  0  0  0  0
   -0.9920    2.2211    0.2575 H   0  0  0  0  0  0  0  0  0  0  0  0
    1.4347    1.8666    0.5944 H   0  0  0  0  0  0  0  0  0  0  0  0
   -3.6436   -1.2823    0.5244 H   0  0  0  0  0  0  0  0  0  0  0  0
   -3.5175   -1.0856   -1.2735 H   0  0  0  0  0  0  0  0  0  0  0  0
   -7.3596   -0.1785    0.8642 H   0  0  0  0  0  0  0  0  0  0  0  0
   -7.8881   -1.6199   -0.0088 H   0  0  0  0  0  0  0  0  0  0  0  0
   -7.5635    1.1296   -1.3646 H   0  0  0  0  0  0  0  0  0  0  0  0
   -9.0914    0.4330   -0.7980 H   0  0  0  0  0  0  0  0  0  0  0  0
   -7.3196   -0.6632   -2.7221 H   0  0  0  0  0  0  0  0  0  0  0  0
  1  2  2  0  0  0  0
  1  6  1  0  0  0  0
  1 15  1  0  0  0  0
  2  3  1  0  0  0  0
  2 16  1  0  0  0  0
  3  4  2  0  0  0  0
  3 17  1  0  0  0  0
  4  5  1  0  0  0  0
  4  7  1  0  0  0  0
  5  6  2  0  0  0  0
  5 18  1  0  0  0  0
  6 19  1  0  0  0  0
  7  8  1  0  0  0  0
  8  9  1  0  0  0  0
  8 20  1  0  0  0  0
  8 21  1  0  0  0  0
  9 10  2  0  0  0  0
  9 11  1  0  0  0  0
 11 12  1  0  0  0  0
 12 13  1  0  0  0  0
 12 22  1  0  0  0  0
 12 23  1  0  0  0  0
 13 14  1  0  0  0  0
 13 24  1  0  0  0  0
 13 25  1  0  0  0  0
 14 26  1  0  0  0  0
M  END
$$$$
