
 OpenBabel11222406593D

 20 19  0  0  0  0  0  0  0  0999 V2000
    1.0720   -0.0585    0.1140 C   0  0  0  0  0  0  0  0  0  0  0  0
    2.5939   -0.0188    0.0028 C   0  0  0  0  0  0  0  0  0  0  0  0
    3.1169   -1.3679   -0.4930 C   0  0  0  0  0  0  0  0  0  0  0  0
    3.0280    1.0727   -0.9610 C   0  0  0  0  0  0  0  0  0  0  0  0
    2.2709    1.7810   -1.6113 O   0  0  0  0  0  0  0  0  0  0  0  0
    4.3884    1.0992   -1.0431 O   0  0  0  0  0  0  0  0  0  0  0  0
    4.9167    1.7611   -2.1990 C   0  0  0  0  0  0  0  0  0  0  0  0
    4.9514    0.7644   -3.3447 C   0  0  0  0  0  0  0  0  0  0  0  0
    0.7483   -0.8597    0.7867 H   0  0  0  0  0  0  0  0  0  0  0  0
    0.6055   -0.2274   -0.8636 H   0  0  0  0  0  0  0  0  0  0  0  0
    0.6861    0.8890    0.5045 H   0  0  0  0  0  0  0  0  0  0  0  0
    3.0118    0.2093    0.9888 H   0  0  0  0  0  0  0  0  0  0  0  0
    2.7864   -1.5646   -1.5194 H   0  0  0  0  0  0  0  0  0  0  0  0
    2.7677   -2.1865    0.1442 H   0  0  0  0  0  0  0  0  0  0  0  0
    4.2121   -1.3925   -0.4949 H   0  0  0  0  0  0  0  0  0  0  0  0
    5.9334    2.0867   -1.9570 H   0  0  0  0  0  0  0  0  0  0  0  0
    4.3390    2.6552   -2.4580 H   0  0  0  0  0  0  0  0  0  0  0  0
    5.5556   -0.1077   -3.0708 H   0  0  0  0  0  0  0  0  0  0  0  0
    5.3665    1.2153   -4.2475 H   0  0  0  0  0  0  0  0  0  0  0  0
    3.9454    0.3881   -3.5670 H   0  0  0  0  0  0  0  0  0  0  0  0
  1  2  1  0  0  0  0
  1  9  1  0  0  0  0
  1 10  1  0  0  0  0
  1 11  1  0  0  0  0
  2  3  1  0  0  0  0
  2  4  1  0  0  0  0
  2 12  1  0  0  0  0
  3 13  1  0  0  0  0
  3 14  1  0  0  0  0
  3 15  1  0  0  0  0
  4  5  2  0  0  0  0
  4  6  1  0  0  0  0
  6  7  1  0  0  0  0
  7  8  1  0  0  0  0
  7 16  1  0  0  0  0
  7 17  1  0  0  0  0
  8 18  1  0  0  0  0
  8 19  1  0  0  0  0
  8 20  1  0  0  0  0
M  END
$$$$
