
 OpenBabel01032514563D

 38 37  0  0  0  0  0  0  0  0999 V2000
    1.0387   -0.0370   -0.0699 C   0  0  0  0  0  0  0  0  0  0  0  0
    2.5503   -0.0332   -0.0673 C   0  0  0  0  0  0  0  0  0  0  0  0
    3.0825    1.2665   -0.6686 C   0  0  0  0  0  0  0  0  0  0  0  0
    4.6075    1.2845   -0.6752 C   0  0  0  0  0  0  0  0  0  0  0  0
    5.1244    2.5847   -1.2792 C   0  0  0  0  0  0  0  0  0  0  0  0
    6.6466    2.6063   -1.2893 C   0  0  0  0  0  0  0  0  0  0  0  0
    7.1650    3.9090   -1.8937 C   0  0  0  0  0  0  0  0  0  0  0  0
    8.6895    3.9160   -1.9063 C   0  0  0  0  0  0  0  0  0  0  0  0
    9.2592    5.1996   -2.5156 C   0  0  0  0  0  0  0  0  0  0  0  0
   10.7669    5.1553   -2.4705 C   0  0  0  0  0  0  0  0  0  0  0  0
   11.4211    4.2364   -2.0044 O   0  0  0  0  0  0  0  0  0  0  0  0
   11.2828    6.3331   -2.9241 O   0  0  0  0  0  0  0  0  0  0  0  0
   12.5924    6.6255   -2.4116 C   0  0  0  0  0  0  0  0  0  0  0  0
   12.4032    7.3209   -1.0767 C   0  0  0  0  0  0  0  0  0  0  0  0
    0.6615   -0.9713    0.3626 H   0  0  0  0  0  0  0  0  0  0  0  0
    0.6486    0.0497   -1.0893 H   0  0  0  0  0  0  0  0  0  0  0  0
    0.6439    0.7967    0.5199 H   0  0  0  0  0  0  0  0  0  0  0  0
    2.9264   -0.8852   -0.6441 H   0  0  0  0  0  0  0  0  0  0  0  0
    2.9218   -0.1417    0.9575 H   0  0  0  0  0  0  0  0  0  0  0  0
    2.7089    2.1239   -0.0944 H   0  0  0  0  0  0  0  0  0  0  0  0
    2.7113    1.3815   -1.6955 H   0  0  0  0  0  0  0  0  0  0  0  0
    4.9859    0.4312   -1.2514 H   0  0  0  0  0  0  0  0  0  0  0  0
    4.9836    1.1760    0.3495 H   0  0  0  0  0  0  0  0  0  0  0  0
    4.7458    3.4372   -0.7020 H   0  0  0  0  0  0  0  0  0  0  0  0
    4.7460    2.6933   -2.3032 H   0  0  0  0  0  0  0  0  0  0  0  0
    7.0236    1.7523   -1.8660 H   0  0  0  0  0  0  0  0  0  0  0  0
    7.0239    2.4941   -0.2650 H   0  0  0  0  0  0  0  0  0  0  0  0
    6.7891    4.7601   -1.3133 H   0  0  0  0  0  0  0  0  0  0  0  0
    6.7867    4.0176   -2.9170 H   0  0  0  0  0  0  0  0  0  0  0  0
    9.0556    3.0528   -2.4687 H   0  0  0  0  0  0  0  0  0  0  0  0
    9.0572    3.8008   -0.8750 H   0  0  0  0  0  0  0  0  0  0  0  0
    8.9281    6.0622   -1.9205 H   0  0  0  0  0  0  0  0  0  0  0  0
    8.9204    5.3179   -3.5461 H   0  0  0  0  0  0  0  0  0  0  0  0
   13.1049    7.2869   -3.1161 H   0  0  0  0  0  0  0  0  0  0  0  0
   13.2055    5.7252   -2.3037 H   0  0  0  0  0  0  0  0  0  0  0  0
   11.8081    8.2326   -1.2021 H   0  0  0  0  0  0  0  0  0  0  0  0
   13.3633    7.5778   -0.6287 H   0  0  0  0  0  0  0  0  0  0  0  0
   11.8485    6.6791   -0.3830 H   0  0  0  0  0  0  0  0  0  0  0  0
  1  2  1  0  0  0  0
  1 15  1  0  0  0  0
  1 16  1  0  0  0  0
  1 17  1  0  0  0  0
  2  3  1  0  0  0  0
  2 18  1  0  0  0  0
  2 19  1  0  0  0  0
  3  4  1  0  0  0  0
  3 20  1  0  0  0  0
  3 21  1  0  0  0  0
  4  5  1  0  0  0  0
  4 22  1  0  0  0  0
  4 23  1  0  0  0  0
  5  6  1  0  0  0  0
  5 24  1  0  0  0  0
  5 25  1  0  0  0  0
  6  7  1  0  0  0  0
  6 26  1  0  0  0  0
  6 27  1  0  0  0  0
  7  8  1  0  0  0  0
  7 28  1  0  0  0  0
  7 29  1  0  0  0  0
  8  9  1  0  0  0  0
  8 30  1  0  0  0  0
  8 31  1  0  0  0  0
  9 10  1  0  0  0  0
  9 32  1  0  0  0  0
  9 33  1  0  0  0  0
 10 11  2  0  0  0  0
 10 12  1  0  0  0  0
 12 13  1  0  0  0  0
 13 14  1  0  0  0  0
 13 34  1  0  0  0  0
 13 35  1  0  0  0  0
 14 36  1  0  0  0  0
 14 37  1  0  0  0  0
 14 38  1  0  0  0  0
M  END
$$$$
