
 OpenBabel08282421143D

 35 34  0  0  1  0  0  0  0  0999 V2000
    6.2733    3.0258   -0.7157 C   0  0  0  0  0  0  0  0  0  0  0  0
    6.1655    1.5404   -1.0089 C   0  0  0  0  0  0  0  0  0  0  0  0
    4.8053    1.1297   -0.9766 O   0  0  0  0  0  0  0  0  0  0  0  0
    4.4778   -0.2224   -1.3761 C   0  0  2  0  0  0  0  0  0  0  0  0
    2.9293   -0.2206   -1.3736 C   0  0  0  0  0  0  0  0  0  0  0  0
    4.9388   -1.3006   -0.3395 C   0  0  0  0  0  0  0  0  0  0  0  0
    6.4438   -1.6044   -0.2899 C   0  0  0  0  0  0  0  0  0  0  0  0
    6.8833   -2.6049    0.7434 C   0  0  0  0  0  0  0  0  0  0  0  0
    7.1657   -2.3294    2.0318 C   0  0  0  0  0  0  0  0  0  0  0  0
    6.8645   -1.0232    2.7191 C   0  0  0  0  0  0  0  0  0  0  0  0
    7.8731   -3.3419    2.8987 C   0  0  0  0  0  0  0  0  0  0  0  0
    4.8785   -0.4560   -2.8236 C   0  0  0  0  0  0  0  0  0  0  0  0
    5.1717   -1.6281   -3.4073 C   0  0  0  0  0  0  0  0  0  0  0  0
    7.3271    3.3245   -0.6890 H   0  0  0  0  0  0  0  0  0  0  0  0
    5.8205    3.2591    0.2523 H   0  0  0  0  0  0  0  0  0  0  0  0
    5.7564    3.6187   -1.4747 H   0  0  0  0  0  0  0  0  0  0  0  0
    6.7184    1.0639   -0.2085 H   0  0  0  0  0  0  0  0  0  0  0  0
    6.6265    1.3187   -1.9763 H   0  0  0  0  0  0  0  0  0  0  0  0
    2.5141   -1.1811   -1.7024 H   0  0  0  0  0  0  0  0  0  0  0  0
    2.5324    0.5631   -2.0328 H   0  0  0  0  0  0  0  0  0  0  0  0
    2.5368   -0.0020   -0.3736 H   0  0  0  0  0  0  0  0  0  0  0  0
    4.4147   -2.2442   -0.5474 H   0  0  0  0  0  0  0  0  0  0  0  0
    4.6050   -0.9817    0.6562 H   0  0  0  0  0  0  0  0  0  0  0  0
    7.0353   -0.7175   -0.0982 H   0  0  0  0  0  0  0  0  0  0  0  0
    6.7959   -1.9595   -1.2618 H   0  0  0  0  0  0  0  0  0  0  0  0
    7.1161   -3.5938    0.3480 H   0  0  0  0  0  0  0  0  0  0  0  0
    6.3468   -0.3050    2.0788 H   0  0  0  0  0  0  0  0  0  0  0  0
    7.7880   -0.5509    3.0676 H   0  0  0  0  0  0  0  0  0  0  0  0
    6.2190   -1.2030    3.5857 H   0  0  0  0  0  0  0  0  0  0  0  0
    8.1728   -4.2262    2.3299 H   0  0  0  0  0  0  0  0  0  0  0  0
    7.2369   -3.6557    3.7246 H   0  0  0  0  0  0  0  0  0  0  0  0
    8.7890   -2.8951    3.3055 H   0  0  0  0  0  0  0  0  0  0  0  0
    4.8765    0.4326   -3.4542 H   0  0  0  0  0  0  0  0  0  0  0  0
    5.1462   -2.5697   -2.8684 H   0  0  0  0  0  0  0  0  0  0  0  0
    5.4262   -1.6717   -4.4620 H   0  0  0  0  0  0  0  0  0  0  0  0
  1  2  1  0  0  0  0
  1 14  1  0  0  0  0
  1 15  1  0  0  0  0
  1 16  1  0  0  0  0
  2  3  1  0  0  0  0
  2 17  1  0  0  0  0
  2 18  1  0  0  0  0
  4  6  1  0  0  0  0
  4 12  1  6  0  0  0
  4  5  1  0  0  0  0
  4  3  1  0  0  0  0
  5 19  1  0  0  0  0
  5 20  1  0  0  0  0
  5 21  1  0  0  0  0
  6  7  1  0  0  0  0
  6 22  1  0  0  0  0
  6 23  1  0  0  0  0
  7  8  1  0  0  0  0
  7 24  1  0  0  0  0
  7 25  1  0  0  0  0
  8  9  2  0  0  0  0
  8 26  1  0  0  0  0
  9 10  1  0  0  0  0
  9 11  1  0  0  0  0
 10 27  1  0  0  0  0
 10 28  1  0  0  0  0
 10 29  1  0  0  0  0
 11 30  1  0  0  0  0
 11 31  1  0  0  0  0
 11 32  1  0  0  0  0
 12 13  2  0  0  0  0
 12 33  1  0  0  0  0
 13 34  1  0  0  0  0
 13 35  1  0  0  0  0
M  END
$$$$
