
 OpenBabel01032515083D

 35 34  0  0  0  0  0  0  0  0999 V2000
    0.9252   -0.0530   -0.0516 C   0  0  0  0  0  0  0  0  0  0  0  0
    2.4401   -0.0486   -0.0557 C   0  0  0  0  0  0  0  0  0  0  0  0
    2.9584    0.0658   -1.4799 C   0  0  0  0  0  0  0  0  0  0  0  0
    4.4775    0.0685   -1.4887 C   0  0  0  0  0  0  0  0  0  0  0  0
    4.9947    0.1850   -2.9133 C   0  0  0  0  0  0  0  0  0  0  0  0
    6.5176    0.1859   -2.9199 C   0  0  0  0  0  0  0  0  0  0  0  0
    7.0400    0.3019   -4.3423 C   0  0  0  0  0  0  0  0  0  0  0  0
    8.5702    0.3153   -4.3877 C   0  0  0  0  0  0  0  0  0  0  0  0
    9.0456    0.4302   -5.8241 C   0  0  0  0  0  0  0  0  0  0  0  0
    8.2788    0.4714   -6.7959 O   0  0  0  0  0  0  0  0  0  0  0  0
   10.4026    0.3555   -5.9325 O   0  0  0  0  0  0  0  0  0  0  0  0
   10.8762   -0.1522   -7.2032 C   0  0  0  0  0  0  0  0  0  0  0  0
   10.8901   -1.6693   -7.1223 C   0  0  0  0  0  0  0  0  0  0  0  0
    0.5479   -0.1351    0.9707 H   0  0  0  0  0  0  0  0  0  0  0  0
    0.5423   -0.8983   -0.6330 H   0  0  0  0  0  0  0  0  0  0  0  0
    0.5376    0.8714   -0.4926 H   0  0  0  0  0  0  0  0  0  0  0  0
    2.8128   -0.9713    0.4051 H   0  0  0  0  0  0  0  0  0  0  0  0
    2.8081    0.7918    0.5450 H   0  0  0  0  0  0  0  0  0  0  0  0
    2.5837    0.9884   -1.9402 H   0  0  0  0  0  0  0  0  0  0  0  0
    2.5862   -0.7730   -2.0809 H   0  0  0  0  0  0  0  0  0  0  0  0
    4.8528   -0.8551   -1.0317 H   0  0  0  0  0  0  0  0  0  0  0  0
    4.8506    0.9073   -0.8886 H   0  0  0  0  0  0  0  0  0  0  0  0
    4.6166    1.1086   -3.3693 H   0  0  0  0  0  0  0  0  0  0  0  0
    4.6166   -0.6524   -3.5132 H   0  0  0  0  0  0  0  0  0  0  0  0
    6.8859   -0.7391   -2.4598 H   0  0  0  0  0  0  0  0  0  0  0  0
    6.8856    1.0248   -2.3175 H   0  0  0  0  0  0  0  0  0  0  0  0
    6.6518    1.2216   -4.7984 H   0  0  0  0  0  0  0  0  0  0  0  0
    6.6537   -0.5337   -4.9395 H   0  0  0  0  0  0  0  0  0  0  0  0
    8.9451   -0.6217   -3.9579 H   0  0  0  0  0  0  0  0  0  0  0  0
    8.9510    1.1580   -3.8030 H   0  0  0  0  0  0  0  0  0  0  0  0
   11.8923    0.2146   -7.3830 H   0  0  0  0  0  0  0  0  0  0  0  0
   10.2559    0.1780   -8.0468 H   0  0  0  0  0  0  0  0  0  0  0  0
   11.5288   -2.0024   -6.2966 H   0  0  0  0  0  0  0  0  0  0  0  0
   11.2522   -2.1128   -8.0509 H   0  0  0  0  0  0  0  0  0  0  0  0
    9.8822   -2.0481   -6.9214 H   0  0  0  0  0  0  0  0  0  0  0  0
  1  2  1  0  0  0  0
  1 14  1  0  0  0  0
  1 15  1  0  0  0  0
  1 16  1  0  0  0  0
  2  3  1  0  0  0  0
  2 17  1  0  0  0  0
  2 18  1  0  0  0  0
  3  4  1  0  0  0  0
  3 19  1  0  0  0  0
  3 20  1  0  0  0  0
  4  5  1  0  0  0  0
  4 21  1  0  0  0  0
  4 22  1  0  0  0  0
  5  6  1  0  0  0  0
  5 23  1  0  0  0  0
  5 24  1  0  0  0  0
  6  7  1  0  0  0  0
  6 25  1  0  0  0  0
  6 26  1  0  0  0  0
  7  8  1  0  0  0  0
  7 27  1  0  0  0  0
  7 28  1  0  0  0  0
  8  9  1  0  0  0  0
  8 29  1  0  0  0  0
  8 30  1  0  0  0  0
  9 10  2  0  0  0  0
  9 11  1  0  0  0  0
 11 12  1  0  0  0  0
 12 13  1  0  0  0  0
 12 31  1  0  0  0  0
 12 32  1  0  0  0  0
 13 33  1  0  0  0  0
 13 34  1  0  0  0  0
 13 35  1  0  0  0  0
M  END
$$$$
