
 OpenBabel01032514513D

 20 19  0  0  0  0  0  0  0  0999 V2000
    2.8958    0.8790    1.0403 C   0  0  0  0  0  0  0  0  0  0  0  0
    2.4905   -0.0371   -0.1058 C   0  0  0  0  0  0  0  0  0  0  0  0
    3.0766    0.4000   -1.4446 C   0  0  0  0  0  0  0  0  0  0  0  0
    4.5804    0.3452   -1.4291 C   0  0  0  0  0  0  0  0  0  0  0  0
    5.2218   -0.6763   -1.2134 O   0  0  0  0  0  0  0  0  0  0  0  0
    5.1132    1.5761   -1.6563 O   0  0  0  0  0  0  0  0  0  0  0  0
    6.5445    1.6378   -1.6022 C   0  0  0  0  0  0  0  0  0  0  0  0
    7.0141    1.7353   -0.1606 C   0  0  0  0  0  0  0  0  0  0  0  0
    2.4378    0.5398    1.9746 H   0  0  0  0  0  0  0  0  0  0  0  0
    2.5705    1.9071    0.8536 H   0  0  0  0  0  0  0  0  0  0  0  0
    3.9807    0.8830    1.1858 H   0  0  0  0  0  0  0  0  0  0  0  0
    1.3975   -0.0488   -0.1834 H   0  0  0  0  0  0  0  0  0  0  0  0
    2.8062   -1.0615    0.1267 H   0  0  0  0  0  0  0  0  0  0  0  0
    2.7358    1.4104   -1.6997 H   0  0  0  0  0  0  0  0  0  0  0  0
    2.7355   -0.2636   -2.2471 H   0  0  0  0  0  0  0  0  0  0  0  0
    6.8544    2.5314   -2.1524 H   0  0  0  0  0  0  0  0  0  0  0  0
    6.9921    0.7752   -2.1115 H   0  0  0  0  0  0  0  0  0  0  0  0
    6.5993    2.6284    0.3174 H   0  0  0  0  0  0  0  0  0  0  0  0
    8.1058    1.7807   -0.1101 H   0  0  0  0  0  0  0  0  0  0  0  0
    6.6748    0.8767    0.4272 H   0  0  0  0  0  0  0  0  0  0  0  0
  1  2  1  0  0  0  0
  1  9  1  0  0  0  0
  1 10  1  0  0  0  0
  1 11  1  0  0  0  0
  2  3  1  0  0  0  0
  2 12  1  0  0  0  0
  2 13  1  0  0  0  0
  3  4  1  0  0  0  0
  3 14  1  0  0  0  0
  3 15  1  0  0  0  0
  4  5  2  0  0  0  0
  4  6  1  0  0  0  0
  6  7  1  0  0  0  0
  7  8  1  0  0  0  0
  7 16  1  0  0  0  0
  7 17  1  0  0  0  0
  8 18  1  0  0  0  0
  8 19  1  0  0  0  0
  8 20  1  0  0  0  0
M  END
$$$$
