
 OpenBabel12012406583D

 27 27  0  0  0  0  0  0  0  0999 V2000
   -1.4174    0.3079   -0.1540 C   0  0  0  0  0  0  0  0  0  0  0  0
   -0.9872   -1.1062    0.2337 C   0  0  0  0  0  0  0  0  0  0  0  0
    0.4203   -1.4219   -0.2629 C   0  0  0  0  0  0  0  0  0  0  0  0
    1.4327   -0.3684    0.1760 C   0  0  0  0  0  0  0  0  0  0  0  0
    0.9867    1.0425   -0.2114 C   0  0  0  0  0  0  0  0  0  0  0  0
   -0.4169    1.3710    0.3222 C   0  0  0  0  0  0  0  0  0  0  0  0
   -0.3715    1.5512    1.8360 C   0  0  0  0  0  0  0  0  0  0  0  0
    0.6168    1.9452    2.4473 O   0  0  0  0  0  0  0  0  0  0  0  0
   -1.5724    1.2819    2.4161 O   0  0  0  0  0  0  0  0  0  0  0  0
   -1.6129    1.4284    3.8423 C   0  0  0  0  0  0  0  0  0  0  0  0
   -1.8346    2.8836    4.2086 C   0  0  0  0  0  0  0  0  0  0  0  0
   -2.4219    0.5066    0.2360 H   0  0  0  0  0  0  0  0  0  0  0  0
   -1.4985    0.3647   -1.2473 H   0  0  0  0  0  0  0  0  0  0  0  0
   -1.6949   -1.8312   -0.1842 H   0  0  0  0  0  0  0  0  0  0  0  0
   -1.0255   -1.2211    1.3235 H   0  0  0  0  0  0  0  0  0  0  0  0
    0.4127   -1.4809   -1.3580 H   0  0  0  0  0  0  0  0  0  0  0  0
    0.7287   -2.4057    0.1079 H   0  0  0  0  0  0  0  0  0  0  0  0
    2.4065   -0.5820   -0.2787 H   0  0  0  0  0  0  0  0  0  0  0  0
    1.5731   -0.4290    1.2619 H   0  0  0  0  0  0  0  0  0  0  0  0
    0.9834    1.1292   -1.3054 H   0  0  0  0  0  0  0  0  0  0  0  0
    1.7220    1.7688    0.1547 H   0  0  0  0  0  0  0  0  0  0  0  0
   -0.7270    2.3433   -0.0817 H   0  0  0  0  0  0  0  0  0  0  0  0
   -0.7028    1.0279    4.3042 H   0  0  0  0  0  0  0  0  0  0  0  0
   -2.4490    0.8224    4.2065 H   0  0  0  0  0  0  0  0  0  0  0  0
   -1.0362    3.5181    3.8116 H   0  0  0  0  0  0  0  0  0  0  0  0
   -1.8737    3.0101    5.2936 H   0  0  0  0  0  0  0  0  0  0  0  0
   -2.7715    3.2463    3.7735 H   0  0  0  0  0  0  0  0  0  0  0  0
  1  2  1  0  0  0  0
  1  6  1  0  0  0  0
  1 12  1  0  0  0  0
  1 13  1  0  0  0  0
  2  3  1  0  0  0  0
  2 14  1  0  0  0  0
  2 15  1  0  0  0  0
  3  4  1  0  0  0  0
  3 16  1  0  0  0  0
  3 17  1  0  0  0  0
  4  5  1  0  0  0  0
  4 18  1  0  0  0  0
  4 19  1  0  0  0  0
  5  6  1  0  0  0  0
  5 20  1  0  0  0  0
  5 21  1  0  0  0  0
  6  7  1  0  0  0  0
  6 22  1  0  0  0  0
  7  8  2  0  0  0  0
  7  9  1  0  0  0  0
  9 10  1  0  0  0  0
 10 11  1  0  0  0  0
 10 23  1  0  0  0  0
 10 24  1  0  0  0  0
 11 25  1  0  0  0  0
 11 26  1  0  0  0  0
 11 27  1  0  0  0  0
M  END
$$$$
