
 OpenBabel08282418053D

 24 24  0  0  0  0  0  0  0  0999 V2000
   -0.1566   -0.7508    1.0675 C   0  0  0  0  0  0  0  0  0  0  0  0
   -0.7121    0.5307    1.0744 C   0  0  0  0  0  0  0  0  0  0  0  0
   -0.5027    1.3919   -0.0007 C   0  0  0  0  0  0  0  0  0  0  0  0
    0.2567    0.9715   -1.0900 C   0  0  0  0  0  0  0  0  0  0  0  0
    0.8096   -0.3092   -1.0997 C   0  0  0  0  0  0  0  0  0  0  0  0
    0.6206   -1.1799   -0.0149 C   0  0  0  0  0  0  0  0  0  0  0  0
    1.2247   -2.5648   -0.0277 C   0  0  0  0  0  0  0  0  0  0  0  0
    2.7330   -2.5884   -0.1847 C   0  0  0  0  0  0  0  0  0  0  0  0
    3.4709   -1.6164   -0.2272 O   0  0  0  0  0  0  0  0  0  0  0  0
    3.1386   -3.8792   -0.3717 O   0  0  0  0  0  0  0  0  0  0  0  0
    4.4172   -4.0178   -1.0109 C   0  0  0  0  0  0  0  0  0  0  0  0
    4.1784   -4.0330   -2.5100 C   0  0  0  0  0  0  0  0  0  0  0  0
   -0.3328   -1.4055    1.9175 H   0  0  0  0  0  0  0  0  0  0  0  0
   -1.3071    0.8582    1.9231 H   0  0  0  0  0  0  0  0  0  0  0  0
   -0.9279    2.3916    0.0105 H   0  0  0  0  0  0  0  0  0  0  0  0
    0.4267    1.6419   -1.9279 H   0  0  0  0  0  0  0  0  0  0  0  0
    1.4121   -0.6141   -1.9547 H   0  0  0  0  0  0  0  0  0  0  0  0
    0.7867   -3.1098   -0.8743 H   0  0  0  0  0  0  0  0  0  0  0  0
    0.9700   -3.1069    0.8918 H   0  0  0  0  0  0  0  0  0  0  0  0
    4.8538   -4.9672   -0.6870 H   0  0  0  0  0  0  0  0  0  0  0  0
    5.1147   -3.2229   -0.7253 H   0  0  0  0  0  0  0  0  0  0  0  0
    3.5079   -4.8588   -2.7772 H   0  0  0  0  0  0  0  0  0  0  0  0
    5.1135   -4.1416   -3.0630 H   0  0  0  0  0  0  0  0  0  0  0  0
    3.6799   -3.1117   -2.8344 H   0  0  0  0  0  0  0  0  0  0  0  0
  1  2  1  0  0  0  0
  1  6  2  0  0  0  0
  1 13  1  0  0  0  0
  2  3  2  0  0  0  0
  2 14  1  0  0  0  0
  3  4  1  0  0  0  0
  3 15  1  0  0  0  0
  4  5  2  0  0  0  0
  4 16  1  0  0  0  0
  5  6  1  0  0  0  0
  5 17  1  0  0  0  0
  6  7  1  0  0  0  0
  7  8  1  0  0  0  0
  7 18  1  0  0  0  0
  7 19  1  0  0  0  0
  8  9  2  0  0  0  0
  8 10  1  0  0  0  0
 10 11  1  0  0  0  0
 11 12  1  0  0  0  0
 11 20  1  0  0  0  0
 11 21  1  0  0  0  0
 12 22  1  0  0  0  0
 12 23  1  0  0  0  0
 12 24  1  0  0  0  0
M  END
$$$$
