
 OpenBabel01032513043D

 24 24  0  0  0  0  0  0  0  0999 V2000
    5.5777   -1.2414   -0.6693 C   0  0  0  0  0  0  0  0  0  0  0  0
    4.1677   -0.6840   -0.7410 C   0  0  0  0  0  0  0  0  0  0  0  0
    4.2489    0.7153   -1.0418 O   0  0  0  0  0  0  0  0  0  0  0  0
    4.3809    1.5382    0.0397 C   0  0  0  0  0  0  0  0  0  0  0  0
    4.2391    1.2040    1.2086 O   0  0  0  0  0  0  0  0  0  0  0  0
    4.8356    2.9046   -0.4045 C   0  0  0  0  0  0  0  0  0  0  0  0
    6.3403    2.9919   -0.4892 C   0  0  0  0  0  0  0  0  0  0  0  0
    7.0055    2.6791   -1.6840 C   0  0  0  0  0  0  0  0  0  0  0  0
    8.3978    2.7465   -1.7478 C   0  0  0  0  0  0  0  0  0  0  0  0
    9.1421    3.1142   -0.6294 C   0  0  0  0  0  0  0  0  0  0  0  0
    8.4891    3.4030    0.5684 C   0  0  0  0  0  0  0  0  0  0  0  0
    7.0961    3.3364    0.6403 C   0  0  0  0  0  0  0  0  0  0  0  0
    9.2822    2.3328   -3.3673 Br  0  0  0  0  0  0  0  0  0  0  0  0
    5.5686   -2.3073   -0.4298 H   0  0  0  0  0  0  0  0  0  0  0  0
    6.1702   -0.7135    0.0860 H   0  0  0  0  0  0  0  0  0  0  0  0
    6.0909   -1.0977   -1.6267 H   0  0  0  0  0  0  0  0  0  0  0  0
    3.6117   -0.8716    0.1842 H   0  0  0  0  0  0  0  0  0  0  0  0
    3.6157   -1.1644   -1.5555 H   0  0  0  0  0  0  0  0  0  0  0  0
    4.4458    3.6470    0.3032 H   0  0  0  0  0  0  0  0  0  0  0  0
    4.3751    3.1532   -1.3684 H   0  0  0  0  0  0  0  0  0  0  0  0
    6.4368    2.3783   -2.5614 H   0  0  0  0  0  0  0  0  0  0  0  0
   10.2262    3.1735   -0.6778 H   0  0  0  0  0  0  0  0  0  0  0  0
    9.0653    3.6772    1.4489 H   0  0  0  0  0  0  0  0  0  0  0  0
    6.6035    3.5504    1.5875 H   0  0  0  0  0  0  0  0  0  0  0  0
  1  2  1  0  0  0  0
  1 14  1  0  0  0  0
  1 15  1  0  0  0  0
  1 16  1  0  0  0  0
  2  3  1  0  0  0  0
  2 17  1  0  0  0  0
  2 18  1  0  0  0  0
  3  4  1  0  0  0  0
  4  5  2  0  0  0  0
  4  6  1  0  0  0  0
  6  7  1  0  0  0  0
  6 19  1  0  0  0  0
  6 20  1  0  0  0  0
  7  8  2  0  0  0  0
  7 12  1  0  0  0  0
  8  9  1  0  0  0  0
  8 21  1  0  0  0  0
  9 10  2  0  0  0  0
  9 13  1  0  0  0  0
 10 11  1  0  0  0  0
 10 22  1  0  0  0  0
 11 12  2  0  0  0  0
 11 23  1  0  0  0  0
 12 24  1  0  0  0  0
M  END
$$$$
