
 OpenBabel01102509043D

 31 31  0  0  1  0  0  0  0  0999 V2000
    0.9197    0.1684   -0.0092 C   0  0  0  0  0  0  0  0  0  0  0  0
    2.4518    0.2223   -0.0858 C   0  0  3  0  0  0  0  0  0  0  0  0
    2.9197    1.4418    0.6451 C   0  0  0  0  0  0  0  0  0  0  0  0
    3.7585    1.4281    1.6821 C   0  0  0  0  0  0  0  0  0  0  0  0
    4.3696    0.1993    2.2557 C   0  0  0  0  0  0  0  0  0  0  0  0
    3.8625   -1.1707    1.7272 C   0  0  0  0  0  0  0  0  0  0  0  0
    3.0859   -1.1255    0.3626 C   0  0  2  0  0  0  0  0  0  0  0  0
    3.8806   -1.6954   -0.8062 C   0  0  0  0  0  0  0  0  0  0  0  0
    4.7153   -1.0836   -1.4600 O   0  0  0  0  0  0  0  0  0  0  0  0
    3.5293   -2.9977   -1.0118 O   0  0  0  0  0  0  0  0  0  0  0  0
    4.2009   -3.6296   -2.1003 C   0  0  0  0  0  0  0  0  0  0  0  0
    2.9043   -1.7769    2.7859 C   0  0  0  0  0  0  0  0  0  0  0  0
    5.0948   -2.1112    1.6775 C   0  0  0  0  0  0  0  0  0  0  0  0
    0.4752    1.0897   -0.4044 H   0  0  0  0  0  0  0  0  0  0  0  0
    0.5729    0.0429    1.0218 H   0  0  0  0  0  0  0  0  0  0  0  0
    0.5299   -0.6620   -0.6077 H   0  0  0  0  0  0  0  0  0  0  0  0
    2.6872    0.3979   -1.1445 H   0  0  0  0  0  0  0  0  0  0  0  0
    2.5619    2.4035    0.2797 H   0  0  0  0  0  0  0  0  0  0  0  0
    4.0544    2.3738    2.1303 H   0  0  0  0  0  0  0  0  0  0  0  0
    4.2281    0.2467    3.3448 H   0  0  0  0  0  0  0  0  0  0  0  0
    5.4520    0.2912    2.1041 H   0  0  0  0  0  0  0  0  0  0  0  0
    2.2406   -1.8288    0.4564 H   0  0  0  0  0  0  0  0  0  0  0  0
    3.9262   -4.6881   -2.1002 H   0  0  0  0  0  0  0  0  0  0  0  0
    5.2872   -3.5554   -1.9888 H   0  0  0  0  0  0  0  0  0  0  0  0
    3.8734   -3.1860   -3.0451 H   0  0  0  0  0  0  0  0  0  0  0  0
    2.0171   -1.1508    2.9252 H   0  0  0  0  0  0  0  0  0  0  0  0
    3.3979   -1.8847    3.7591 H   0  0  0  0  0  0  0  0  0  0  0  0
    2.5701   -2.7782    2.4868 H   0  0  0  0  0  0  0  0  0  0  0  0
    5.8596   -1.7268    0.9922 H   0  0  0  0  0  0  0  0  0  0  0  0
    4.8259   -3.1228    1.3583 H   0  0  0  0  0  0  0  0  0  0  0  0
    5.5670   -2.1950    2.6638 H   0  0  0  0  0  0  0  0  0  0  0  0
  1  2  1  0  0  0  0
  1 14  1  0  0  0  0
  1 15  1  0  0  0  0
  1 16  1  0  0  0  0
  2  3  1  0  0  0  0
  2  7  1  0  0  0  0
  2 17  1  0  0  0  0
  3  4  2  0  0  0  0
  3 18  1  0  0  0  0
  4  5  1  0  0  0  0
  4 19  1  0  0  0  0
  5  6  1  0  0  0  0
  5 20  1  0  0  0  0
  5 21  1  0  0  0  0
  6  7  1  0  0  0  0
  6 12  1  0  0  0  0
  6 13  1  0  0  0  0
  7  8  1  0  0  0  0
  7 22  1  1  0  0  0
  8  9  2  0  0  0  0
  8 10  1  0  0  0  0
 10 11  1  0  0  0  0
 11 23  1  0  0  0  0
 11 24  1  0  0  0  0
 11 25  1  0  0  0  0
 12 26  1  0  0  0  0
 12 27  1  0  0  0  0
 12 28  1  0  0  0  0
 13 29  1  0  0  0  0
 13 30  1  0  0  0  0
 13 31  1  0  0  0  0
M  END
$$$$
