
 OpenBabel01102509013D

 13 13  0  0  0  0  0  0  0  0999 V2000
    0.9435   -0.0532   -0.0910 C   0  0  0  0  0  0  0  0  0  0  0  0
    2.4074    0.1418   -0.0935 C   0  0  0  0  0  0  0  0  0  0  0  0
    3.2497    1.2330   -0.0902 C   0  0  0  0  0  0  0  0  0  0  0  0
    4.5713    0.7307   -0.0964 C   0  0  0  0  0  0  0  0  0  0  0  0
    4.4558   -0.6396   -0.1021 C   0  0  0  0  0  0  0  0  0  0  0  0
    3.1487   -1.0069   -0.1004 O   0  0  0  0  0  0  0  0  0  0  0  0
    2.8433    2.9267   -0.0806 S   0  0  0  0  0  0  0  0  0  0  0  0
    0.4038    0.8975   -0.0909 H   0  0  0  0  0  0  0  0  0  0  0  0
    0.6365   -0.6144    0.7970 H   0  0  0  0  0  0  0  0  0  0  0  0
    0.6336   -0.6155   -0.9772 H   0  0  0  0  0  0  0  0  0  0  0  0
    5.4954    1.2907   -0.0962 H   0  0  0  0  0  0  0  0  0  0  0  0
    5.1690   -1.4517   -0.1073 H   0  0  0  0  0  0  0  0  0  0  0  0
    1.5076    2.8261   -0.0657 H   0  0  0  0  0  0  0  0  0  0  0  0
  1  2  1  0  0  0  0
  1  8  1  0  0  0  0
  1  9  1  0  0  0  0
  1 10  1  0  0  0  0
  2  3  2  0  0  0  0
  2  6  1  0  0  0  0
  3  4  1  0  0  0  0
  3  7  1  0  0  0  0
  4  5  2  0  0  0  0
  4 11  1  0  0  0  0
  5  6  1  0  0  0  0
  5 12  1  0  0  0  0
  7 13  1  0  0  0  0
M  END
$$$$
