
 OpenBabel09262514373D

 33 35  0  0  1  0  0  0  0  0999 V2000
    3.2800    3.8761    2.7570 C   0  0  0  0  0  0  0  0  0  0  0  0
    3.4594    2.3840    2.4804 C   0  0  0  0  0  0  0  0  0  0  0  0
    4.6699    1.7674    3.1609 C   0  0  0  0  0  0  0  0  0  0  0  0
    5.2537    2.2167    4.1229 O   0  0  0  0  0  0  0  0  0  0  0  0
    4.9910    0.6155    2.5687 O   0  0  0  0  0  0  0  0  0  0  0  0
    6.0558   -0.3173    2.9681 C   0  0  3  0  0  0  0  0  0  0  0  0
    7.4730    0.1457    2.5191 C   0  0  0  0  0  0  0  0  0  0  0  0
    7.7424   -0.7092    1.2356 C   0  0  3  0  0  0  0  0  0  0  0  0
    6.2980   -0.7912    0.7048 C   0  0  0  0  0  0  0  0  0  0  0  0
    5.7613   -1.5077    2.0174 C   0  0  3  0  0  0  0  0  0  0  0  0
    6.6545   -2.7065    1.8246 C   0  0  3  0  0  0  0  0  0  0  0  0
    8.0757   -2.1459    1.7194 C   0  0  3  0  0  0  0  0  0  0  0  0
    8.6495   -3.3368    1.0177 C   0  0  0  0  0  0  0  0  0  0  0  0
    8.0172   -4.4535    1.4612 C   0  0  0  0  0  0  0  0  0  0  0  0
    6.8305   -4.0946    2.3746 C   0  0  0  0  0  0  0  0  0  0  0  0
    2.4122    4.2689    2.2096 H   0  0  0  0  0  0  0  0  0  0  0  0
    4.1650    4.4395    2.4255 H   0  0  0  0  0  0  0  0  0  0  0  0
    3.1308    4.0699    3.8133 H   0  0  0  0  0  0  0  0  0  0  0  0
    3.5562    2.2565    1.3877 H   0  0  0  0  0  0  0  0  0  0  0  0
    2.5528    1.8550    2.8003 H   0  0  0  0  0  0  0  0  0  0  0  0
    5.9840   -0.5324    4.0384 H   0  0  0  0  0  0  0  0  0  0  0  0
    8.2212   -0.0662    3.2893 H   0  0  0  0  0  0  0  0  0  0  0  0
    7.5089    1.2178    2.2986 H   0  0  0  0  0  0  0  0  0  0  0  0
    8.4873   -0.2758    0.5640 H   0  0  0  0  0  0  0  0  0  0  0  0
    6.2090   -1.3801   -0.2209 H   0  0  0  0  0  0  0  0  0  0  0  0
    5.8669    0.1940    0.4887 H   0  0  0  0  0  0  0  0  0  0  0  0
    4.7002   -1.7642    2.0158 H   0  0  0  0  0  0  0  0  0  0  0  0
    6.2822   -3.0178    0.8278 H   0  0  0  0  0  0  0  0  0  0  0  0
    8.5905   -2.0944    2.6860 H   0  0  0  0  0  0  0  0  0  0  0  0
    9.4777   -3.3211    0.3320 H   0  0  0  0  0  0  0  0  0  0  0  0
    8.2194   -5.4562    1.1177 H   0  0  0  0  0  0  0  0  0  0  0  0
    7.1070   -4.1508    3.4283 H   0  0  0  0  0  0  0  0  0  0  0  0
    5.9635   -4.7247    2.1626 H   0  0  0  0  0  0  0  0  0  0  0  0
  1  2  1  0  0  0  0
  1 16  1  0  0  0  0
  1 17  1  0  0  0  0
  1 18  1  0  0  0  0
  2  3  1  0  0  0  0
  2 19  1  0  0  0  0
  2 20  1  0  0  0  0
  3  4  2  0  0  0  0
  3  5  1  0  0  0  0
  5  6  1  0  0  0  0
  6  7  1  0  0  0  0
  6 10  1  0  0  0  0
  6 21  1  0  0  0  0
  7  8  1  0  0  0  0
  7 22  1  0  0  0  0
  7 23  1  0  0  0  0
  8  9  1  0  0  0  0
  8 12  1  0  0  0  0
  8 24  1  0  0  0  0
  9 10  1  0  0  0  0
  9 25  1  0  0  0  0
  9 26  1  0  0  0  0
 10 11  1  0  0  0  0
 10 27  1  0  0  0  0
 11 12  1  0  0  0  0
 11 15  1  0  0  0  0
 11 28  1  0  0  0  0
 12 13  1  0  0  0  0
 12 29  1  0  0  0  0
 13 14  2  0  0  0  0
 13 30  1  0  0  0  0
 14 15  1  0  0  0  0
 14 31  1  0  0  0  0
 15 32  1  0  0  0  0
 15 33  1  0  0  0  0
M  END
$$$$
