Test
 OpenBabel06172519403D

 27 27  0     0  0  0  0  0  0999 V2000
    1.4091   -2.4674   -0.7632 C   0  0  0  0  0  0  0  0  0  0  0  0
    2.0084   -1.0588   -0.5956 C   0  0  0  0  0  0  0  0  0  0  0  0
    3.2140   -0.9701    0.3585 C   0  0  0  0  0  0  0  0  0  0  0  0
    4.4385   -1.7206   -0.1974 C   0  0  0  0  0  0  0  0  0  0  0  0
    5.6409   -1.7814    0.5171 C   0  0  0  0  0  0  0  0  0  0  0  0
    6.7414   -2.4571   -0.0237 C   0  0  0  0  0  0  0  0  0  0  0  0
    6.6282   -3.0998   -1.2623 C   0  0  0  0  0  0  0  0  0  0  0  0
    5.4201   -3.0546   -1.9683 C   0  0  0  0  0  0  0  0  0  0  0  0
    4.3169   -2.3879   -1.4220 C   0  0  0  0  0  0  0  0  0  0  0  0
    7.6824   -3.8045   -1.9234 O   0  0  0  0  0  0  0  0  0  0  0  0
    8.9579   -3.7132   -1.2834 C   0  0  0  0  0  0  0  0  0  0  0  0
    0.8651   -0.1761   -0.0615 C   0  0  0  0  0  0  0  0  0  0  0  0
    1.1154    0.8053    0.5820 O   0  0  0  0  0  0  0  0  0  0  0  0
    2.1762   -3.1329   -1.1595 H   0  0  0  0  0  0  0  0  0  0  0  0
    0.5636   -2.4397   -1.4506 H   0  0  0  0  0  0  0  0  0  0  0  0
    1.0759   -2.8361    0.2069 H   0  0  0  0  0  0  0  0  0  0  0  0
    2.2999   -0.7016   -1.5834 H   0  0  0  0  0  0  0  0  0  0  0  0
    3.4701    0.0777    0.5154 H   0  0  0  0  0  0  0  0  0  0  0  0
    2.9130   -1.4167    1.3062 H   0  0  0  0  0  0  0  0  0  0  0  0
    5.7244   -1.2934    1.4882 H   0  0  0  0  0  0  0  0  0  0  0  0
    7.6937   -2.4594    0.5065 H   0  0  0  0  0  0  0  0  0  0  0  0
    5.3237   -3.5809   -2.9179 H   0  0  0  0  0  0  0  0  0  0  0  0
    3.3724   -2.3612   -1.9655 H   0  0  0  0  0  0  0  0  0  0  0  0
    9.6225   -4.2296   -1.9760 H   0  0  0  0  0  0  0  0  0  0  0  0
    8.9361   -4.2476   -0.3336 H   0  0  0  0  0  0  0  0  0  0  0  0
    9.3188   -2.6977   -1.1207 H   0  0  0  0  0  0  0  0  0  0  0  0
   -0.1702   -0.4262   -0.2932 H   0  0  0  0  0  0  0  0  0  0  0  0
  1 14 1.00  0  0  0  0
  1 15 1.00  0  0  0  0
  1 16 1.00  0  0  0  0
  1  2 1.00  0  0  0  0
  2 12 1.00  0  0  0  0
  2  3 1.00  0  0  0  0
  2 17 1.00  0  0  0  0
  3  4 1.00  0  0  0  0
  3 18 1.00  0  0  0  0
  3 19 1.00  0  0  0  0
  4  5 1.50  0  0  0  0
  4  9 1.50  0  0  0  0
  5  6 1.50  0  0  0  0
  5 20 1.00  0  0  0  0
  6  7 1.50  0  0  0  0
  6 21 1.00  0  0  0  0
  7 10 1.00  0  0  0  0
  8  7 1.50  0  0  0  0
  8  9 1.50  0  0  0  0
  8 22 1.00  0  0  0  0
  9 23 1.00  0  0  0  0
 10 11 1.00  0  0  0  0
 11 24 1.00  0  0  0  0
 11 25 1.00  0  0  0  0
 11 26 1.00  0  0  0  0
 12 13 2.00  0  0  0  0
 12 27 1.00  0  0  0  0
M  END

