
 OpenBabel11112411183D

 26 26  0  0  0  0  0  0  0  0999 V2000
    1.7012    0.7034    0.6979 C   0  0  0  0  0  0  0  0  0  0  0  0
    0.7674    0.3515   -0.4648 C   0  0  0  0  0  0  0  0  0  0  0  0
    0.0554   -0.8441   -0.0859 O   0  0  0  0  0  0  0  0  0  0  0  0
   -1.1674   -0.4114    0.5033 C   0  0  0  0  0  0  0  0  0  0  0  0
   -1.3301    1.0412    0.1292 C   0  0  0  0  0  0  0  0  0  0  0  0
   -0.1958    1.3867   -0.6588 O   0  0  0  0  0  0  0  0  0  0  0  0
    1.4957    0.0297   -1.7660 C   0  0  0  0  0  0  0  0  0  0  0  0
    2.3651    1.0883   -2.3993 C   0  0  0  0  0  0  0  0  0  0  0  0
    2.3230    2.2900   -1.7805 O   0  0  0  0  0  0  0  0  0  0  0  0
    3.1360    3.3282   -2.3546 C   0  0  0  0  0  0  0  0  0  0  0  0
    2.3988    4.0131   -3.4914 C   0  0  0  0  0  0  0  0  0  0  0  0
    3.0382    0.8524   -3.3973 O   0  0  0  0  0  0  0  0  0  0  0  0
    1.1758    0.6379    1.6574 H   0  0  0  0  0  0  0  0  0  0  0  0
    2.0874    1.7239    0.6252 H   0  0  0  0  0  0  0  0  0  0  0  0
    2.5405    0.0019    0.7550 H   0  0  0  0  0  0  0  0  0  0  0  0
   -1.1099   -0.5424    1.5890 H   0  0  0  0  0  0  0  0  0  0  0  0
   -1.9909   -1.0304    0.1347 H   0  0  0  0  0  0  0  0  0  0  0  0
   -1.3649    1.6827    1.0156 H   0  0  0  0  0  0  0  0  0  0  0  0
   -2.2419    1.2182   -0.4493 H   0  0  0  0  0  0  0  0  0  0  0  0
    0.7523   -0.2456   -2.5235 H   0  0  0  0  0  0  0  0  0  0  0  0
    2.1335   -0.8486   -1.6060 H   0  0  0  0  0  0  0  0  0  0  0  0
    4.1088    2.9421   -2.6786 H   0  0  0  0  0  0  0  0  0  0  0  0
    3.3296    4.0526   -1.5558 H   0  0  0  0  0  0  0  0  0  0  0  0
    2.3779    3.3740   -4.3806 H   0  0  0  0  0  0  0  0  0  0  0  0
    2.8905    4.9532   -3.7614 H   0  0  0  0  0  0  0  0  0  0  0  0
    1.3593    4.2190   -3.2182 H   0  0  0  0  0  0  0  0  0  0  0  0
  1  2  1  0  0  0  0
  1 13  1  0  0  0  0
  1 14  1  0  0  0  0
  1 15  1  0  0  0  0
  2  3  1  0  0  0  0
  2  6  1  0  0  0  0
  2  7  1  0  0  0  0
  3  4  1  0  0  0  0
  4  5  1  0  0  0  0
  4 16  1  0  0  0  0
  4 17  1  0  0  0  0
  5  6  1  0  0  0  0
  5 18  1  0  0  0  0
  5 19  1  0  0  0  0
  7  8  1  0  0  0  0
  7 20  1  0  0  0  0
  7 21  1  0  0  0  0
  8  9  1  0  0  0  0
  8 12  2  0  0  0  0
  9 10  1  0  0  0  0
 10 11  1  0  0  0  0
 10 22  1  0  0  0  0
 10 23  1  0  0  0  0
 11 24  1  0  0  0  0
 11 25  1  0  0  0  0
 11 26  1  0  0  0  0
M  END
$$$$
