Test
 OpenBabel07242506243D

 18 18  0     0  0  0  0  0  0999 V2000
    4.2244    0.2178    1.9305 C   0  0  0  0  0  0  0  0  0  0  0  0
    4.3049   -0.9567    0.9377 C   0  0  0  0  0  0  0  0  0  0  0  0
    4.9787   -2.1955    1.5565 C   0  0  0  0  0  0  0  0  0  0  0  0
    5.0739   -3.4001    0.6017 C   0  0  0  0  0  0  0  0  0  0  0  0
    6.4332   -3.1699   -0.0845 C   0  0  0  0  0  0  0  0  0  0  0  0
    7.2224   -2.3758    0.9730 C   0  0  0  0  0  0  0  0  0  0  0  0
    8.2314   -1.8043    0.6645 O   0  0  0  0  0  0  0  0  0  0  0  0
    6.3027   -1.7633    1.8807 O   0  0  0  0  0  0  0  0  0  0  0  0
    5.2297    0.4951    2.2476 H   0  0  0  0  0  0  0  0  0  0  0  0
    3.6383   -0.0804    2.7999 H   0  0  0  0  0  0  0  0  0  0  0  0
    3.7482    1.0704    1.4465 H   0  0  0  0  0  0  0  0  0  0  0  0
    4.9089   -0.6651    0.0785 H   0  0  0  0  0  0  0  0  0  0  0  0
    3.3012   -1.2197    0.6037 H   0  0  0  0  0  0  0  0  0  0  0  0
    4.4606   -2.4943    2.4678 H   0  0  0  0  0  0  0  0  0  0  0  0
    4.2675   -3.3491   -0.1299 H   0  0  0  0  0  0  0  0  0  0  0  0
    5.0906   -4.3234    1.1808 H   0  0  0  0  0  0  0  0  0  0  0  0
    6.3651   -2.5851   -1.0018 H   0  0  0  0  0  0  0  0  0  0  0  0
    6.9442   -4.1105   -0.2902 H   0  0  0  0  0  0  0  0  0  0  0  0
  1  2 1.00  0  0  0  0
  1  9 1.00  0  0  0  0
  1 10 1.00  0  0  0  0
  1 11 1.00  0  0  0  0
  2 12 1.00  0  0  0  0
  2 13 1.00  0  0  0  0
  2  3 1.00  0  0  0  0
  3  4 1.00  0  0  0  0
  3  8 1.00  0  0  0  0
  3 14 1.00  0  0  0  0
  4  5 1.00  0  0  0  0
  4 15 1.00  0  0  0  0
  4 16 1.00  0  0  0  0
  5 17 1.00  0  0  0  0
  5 18 1.00  0  0  0  0
  6  5 1.00  0  0  0  0
  6  7 2.00  0  0  0  0
  6  8 1.00  0  0  0  0
M  END

