
 OpenBabel10142509023D

 43 44  0  0  1  0  0  0  0  0999 V2000
    1.1360    0.0630   -0.1167 C   0  0  0  0  0  0  0  0  0  0  0  0
    2.6151    0.2190    0.1383 C   0  0  0  0  0  0  0  0  0  0  0  0
    3.2431    1.1339   -0.4065 O   0  0  0  0  0  0  0  0  0  0  0  0
    3.3099   -0.7767    1.1020 C   0  0  3  0  0  0  0  0  0  0  0  0
    2.5914   -0.6387    2.4646 C   0  0  0  0  0  0  0  0  0  0  0  0
    4.7959   -0.3899    1.2640 C   0  0  0  0  0  0  0  0  0  0  0  0
    5.5459   -1.3428    2.1882 C   0  0  0  0  0  0  0  0  0  0  0  0
    5.0703   -2.7864    2.1874 C   0  0  0  0  0  0  0  0  0  0  0  0
    4.0285   -3.2358    1.4522 C   0  0  0  0  0  0  0  0  0  0  0  0
    3.2557   -2.2434    0.5501 C   0  0  3  0  0  0  0  0  0  0  0  0
    3.7710   -2.3164   -0.9055 C   0  0  0  0  0  0  0  0  0  0  0  0
    3.5158   -4.6866    1.5606 C   0  0  0  0  0  0  0  0  0  0  0  0
    2.1297   -4.6821    2.2474 C   0  0  0  0  0  0  0  0  0  0  0  0
    3.3420   -5.3455    0.1710 C   0  0  0  0  0  0  0  0  0  0  0  0
    4.4496   -5.6513    2.3486 C   0  0  0  0  0  0  0  0  0  0  0  0
    5.4401   -5.0749    3.3432 C   0  0  0  0  0  0  0  0  0  0  0  0
    5.8421   -3.6239    3.1679 C   0  0  0  0  0  0  0  0  0  0  0  0
    0.8528    0.6991   -0.9587 H   0  0  0  0  0  0  0  0  0  0  0  0
    0.5758    0.3872    0.7629 H   0  0  0  0  0  0  0  0  0  0  0  0
    0.8896   -0.9676   -0.3802 H   0  0  0  0  0  0  0  0  0  0  0  0
    2.6062    0.4056    2.8014 H   0  0  0  0  0  0  0  0  0  0  0  0
    3.0438   -1.2398    3.2579 H   0  0  0  0  0  0  0  0  0  0  0  0
    1.5424   -0.9448    2.3988 H   0  0  0  0  0  0  0  0  0  0  0  0
    4.8952    0.6359    1.6426 H   0  0  0  0  0  0  0  0  0  0  0  0
    5.2969   -0.3795    0.2870 H   0  0  0  0  0  0  0  0  0  0  0  0
    5.4543   -0.9573    3.2130 H   0  0  0  0  0  0  0  0  0  0  0  0
    6.6138   -1.3078    1.9419 H   0  0  0  0  0  0  0  0  0  0  0  0
    2.2013   -2.5357    0.5294 H   0  0  0  0  0  0  0  0  0  0  0  0
    4.8525   -2.1638   -0.9697 H   0  0  0  0  0  0  0  0  0  0  0  0
    3.2852   -1.5731   -1.5454 H   0  0  0  0  0  0  0  0  0  0  0  0
    3.5583   -3.2797   -1.3714 H   0  0  0  0  0  0  0  0  0  0  0  0
    1.3847   -4.1154    1.6782 H   0  0  0  0  0  0  0  0  0  0  0  0
    2.1819   -4.2501    3.2519 H   0  0  0  0  0  0  0  0  0  0  0  0
    1.7300   -5.6994    2.3373 H   0  0  0  0  0  0  0  0  0  0  0  0
    2.5264   -4.8950   -0.4008 H   0  0  0  0  0  0  0  0  0  0  0  0
    3.1020   -6.4120    0.2640 H   0  0  0  0  0  0  0  0  0  0  0  0
    4.2669   -5.2709   -0.4157 H   0  0  0  0  0  0  0  0  0  0  0  0
    5.0316   -6.2585    1.6420 H   0  0  0  0  0  0  0  0  0  0  0  0
    3.8396   -6.3902    2.8895 H   0  0  0  0  0  0  0  0  0  0  0  0
    6.3534   -5.6868    3.3001 H   0  0  0  0  0  0  0  0  0  0  0  0
    5.0619   -5.2228    4.3623 H   0  0  0  0  0  0  0  0  0  0  0  0
    6.9044   -3.5845    2.8946 H   0  0  0  0  0  0  0  0  0  0  0  0
    5.7731   -3.1470    4.1560 H   0  0  0  0  0  0  0  0  0  0  0  0
  1  2  1  0  0  0  0
  1 18  1  0  0  0  0
  1 19  1  0  0  0  0
  1 20  1  0  0  0  0
  2  3  2  0  0  0  0
  2  4  1  0  0  0  0
  4  5  1  0  0  0  0
  4  6  1  0  0  0  0
  4 10  1  0  0  0  0
  5 21  1  0  0  0  0
  5 22  1  0  0  0  0
  5 23  1  0  0  0  0
  6  7  1  0  0  0  0
  6 24  1  0  0  0  0
  6 25  1  0  0  0  0
  7  8  1  0  0  0  0
  7 26  1  0  0  0  0
  7 27  1  0  0  0  0
  8  9  2  0  0  0  0
  8 17  1  0  0  0  0
  9 10  1  0  0  0  0
  9 12  1  0  0  0  0
 10 11  1  0  0  0  0
 10 28  1  0  0  0  0
 11 29  1  0  0  0  0
 11 30  1  0  0  0  0
 11 31  1  0  0  0  0
 12 13  1  0  0  0  0
 12 14  1  0  0  0  0
 12 15  1  0  0  0  0
 13 32  1  0  0  0  0
 13 33  1  0  0  0  0
 13 34  1  0  0  0  0
 14 35  1  0  0  0  0
 14 36  1  0  0  0  0
 14 37  1  0  0  0  0
 15 16  1  0  0  0  0
 15 38  1  0  0  0  0
 15 39  1  0  0  0  0
 16 17  1  0  0  0  0
 16 40  1  0  0  0  0
 16 41  1  0  0  0  0
 17 42  1  0  0  0  0
 17 43  1  0  0  0  0
M  END
$$$$
