
 OpenBabel11122410073D

 35 36  0  0  1  0  0  0  0  0999 V2000
    0.9809   -0.0019   -0.0174 O   0  0  0  0  0  0  0  0  0  0  0  0
    2.4220   -0.0580   -0.0188 C   0  0  1  0  0  0  0  0  0  0  0  0
    2.8573   -1.3499    0.7352 C   0  0  2  0  0  0  0  0  0  0  0  0
    2.4054   -2.6189   -0.0210 C   0  0  0  0  0  0  0  0  0  0  0  0
    2.8136   -2.6292   -1.4924 C   0  0  0  0  0  0  0  0  0  0  0  0
    2.4393   -1.3395   -2.2254 C   0  0  0  0  0  0  0  0  0  0  0  0
    2.9501   -0.0689   -1.4976 C   0  0  1  0  0  0  0  0  0  0  0  0
    2.4227    1.1894   -2.2373 C   0  0  0  0  0  0  0  0  0  0  0  0
    2.8093    2.4914   -1.5313 C   0  0  0  0  0  0  0  0  0  0  0  0
    2.4060    2.4965   -0.0609 C   0  0  0  0  0  0  0  0  0  0  0  0
    2.8569    1.2398    0.6952 C   0  0  0  0  0  0  0  0  0  0  0  0
    4.5026   -0.0634   -1.5794 C   0  0  0  0  0  0  0  0  0  0  0  0
    2.3350   -1.4259    2.1762 C   0  0  0  0  0  0  0  0  0  0  0  0
    0.6253   -0.7963   -0.4453 H   0  0  0  0  0  0  0  0  0  0  0  0
    3.9525   -1.3687    0.8010 H   0  0  0  0  0  0  0  0  0  0  0  0
    1.3154   -2.7294    0.0448 H   0  0  0  0  0  0  0  0  0  0  0  0
    2.8264   -3.5068    0.4668 H   0  0  0  0  0  0  0  0  0  0  0  0
    2.3401   -3.4817   -1.9947 H   0  0  0  0  0  0  0  0  0  0  0  0
    3.8932   -2.8020   -1.5666 H   0  0  0  0  0  0  0  0  0  0  0  0
    1.3487   -1.3021   -2.3418 H   0  0  0  0  0  0  0  0  0  0  0  0
    2.8430   -1.3795   -3.2450 H   0  0  0  0  0  0  0  0  0  0  0  0
    1.3290    1.1464   -2.3205 H   0  0  0  0  0  0  0  0  0  0  0  0
    2.8043    1.2134   -3.2656 H   0  0  0  0  0  0  0  0  0  0  0  0
    2.3333    3.3378   -2.0429 H   0  0  0  0  0  0  0  0  0  0  0  0
    3.8885    2.6597   -1.6133 H   0  0  0  0  0  0  0  0  0  0  0  0
    1.3141    2.5865    0.0061 H   0  0  0  0  0  0  0  0  0  0  0  0
    2.8170    3.3855    0.4301 H   0  0  0  0  0  0  0  0  0  0  0  0
    2.4046    1.2976    1.6923 H   0  0  0  0  0  0  0  0  0  0  0  0
    3.9435    1.2616    0.8406 H   0  0  0  0  0  0  0  0  0  0  0  0
    4.9559   -0.9388   -1.1075 H   0  0  0  0  0  0  0  0  0  0  0  0
    4.9500    0.8104   -1.1004 H   0  0  0  0  0  0  0  0  0  0  0  0
    4.8308   -0.0592   -2.6256 H   0  0  0  0  0  0  0  0  0  0  0  0
    1.2430   -1.3893    2.2140 H   0  0  0  0  0  0  0  0  0  0  0  0
    2.7288   -0.6083    2.7875 H   0  0  0  0  0  0  0  0  0  0  0  0
    2.6566   -2.3592    2.6515 H   0  0  0  0  0  0  0  0  0  0  0  0
  1 14  1  0  0  0  0
  2  3  1  0  0  0  0
  2  7  1  0  0  0  0
  2 11  1  0  0  0  0
  2  1  1  6  0  0  0
  3  4  1  0  0  0  0
  3 13  1  0  0  0  0
  3 15  1  1  0  0  0
  4  5  1  0  0  0  0
  4 16  1  0  0  0  0
  4 17  1  0  0  0  0
  5  6  1  0  0  0  0
  5 18  1  0  0  0  0
  5 19  1  0  0  0  0
  6  7  1  0  0  0  0
  6 20  1  0  0  0  0
  6 21  1  0  0  0  0
  7  8  1  0  0  0  0
  7 12  1  1  0  0  0
  8  9  1  0  0  0  0
  8 22  1  0  0  0  0
  8 23  1  0  0  0  0
  9 10  1  0  0  0  0
  9 24  1  0  0  0  0
  9 25  1  0  0  0  0
 10 11  1  0  0  0  0
 10 26  1  0  0  0  0
 10 27  1  0  0  0  0
 11 28  1  0  0  0  0
 11 29  1  0  0  0  0
 12 30  1  0  0  0  0
 12 31  1  0  0  0  0
 12 32  1  0  0  0  0
 13 33  1  0  0  0  0
 13 34  1  0  0  0  0
 13 35  1  0  0  0  0
M  END
$$$$
