
 OpenBabel06032506043D

 25 25  0  0  0  0  0  0  0  0999 V2000
    3.3626    0.9802   -0.0003 C   0  0  0  0  0  0  0  0  0  0  0  0
    2.3573   -0.1677   -0.0249 C   0  0  0  0  0  0  0  0  0  0  0  0
    2.9630   -1.5521   -0.0289 C   0  0  0  0  0  0  0  0  0  0  0  0
    4.3206   -1.6350   -0.0207 N   0  0  0  0  0  0  0  0  0  0  0  0
    4.8538   -2.8774   -0.0254 C   0  0  0  0  0  0  0  0  0  0  0  0
    4.0797   -4.0241   -0.0397 C   0  0  0  0  0  0  0  0  0  0  0  0
    2.7305   -3.9514   -0.0409 N   0  0  0  0  0  0  0  0  0  0  0  0
    2.1708   -2.7095   -0.0443 C   0  0  0  0  0  0  0  0  0  0  0  0
    0.6641   -2.6952   -0.0054 C   0  0  0  0  0  0  0  0  0  0  0  0
    0.2608   -1.6793   -0.0286 H   0  0  0  0  0  0  0  0  0  0  0  0
    0.0499   -3.4837   -1.1561 C   0  0  0  0  0  0  0  0  0  0  0  0
    4.6863   -5.3892   -0.0502 C   0  0  0  0  0  0  0  0  0  0  0  0
    2.8371    1.9406   -0.0248 H   0  0  0  0  0  0  0  0  0  0  0  0
    4.0347    0.9430   -0.8646 H   0  0  0  0  0  0  0  0  0  0  0  0
    3.9723    0.9555    0.9094 H   0  0  0  0  0  0  0  0  0  0  0  0
    1.7359   -0.0560   -0.9211 H   0  0  0  0  0  0  0  0  0  0  0  0
    1.7093   -0.0691    0.8539 H   0  0  0  0  0  0  0  0  0  0  0  0
    5.9371   -2.9175   -0.0166 H   0  0  0  0  0  0  0  0  0  0  0  0
    0.3472   -3.1369    0.9471 H   0  0  0  0  0  0  0  0  0  0  0  0
    0.3093   -3.0367   -2.1217 H   0  0  0  0  0  0  0  0  0  0  0  0
   -1.0414   -3.4951   -1.0666 H   0  0  0  0  0  0  0  0  0  0  0  0
    0.3924   -4.5243   -1.1653 H   0  0  0  0  0  0  0  0  0  0  0  0
    5.7795   -5.3492   -0.0732 H   0  0  0  0  0  0  0  0  0  0  0  0
    4.3449   -5.9392   -0.9332 H   0  0  0  0  0  0  0  0  0  0  0  0
    4.3800   -5.9377    0.8461 H   0  0  0  0  0  0  0  0  0  0  0  0
  1  2  1  0  0  0  0
  1 13  1  0  0  0  0
  1 14  1  0  0  0  0
  1 15  1  0  0  0  0
  2  3  1  0  0  0  0
  2 16  1  0  0  0  0
  2 17  1  0  0  0  0
  3  4  2  0  0  0  0
  3  8  1  0  0  0  0
  4  5  1  0  0  0  0
  5  6  2  0  0  0  0
  5 18  1  0  0  0  0
  6  7  1  0  0  0  0
  6 12  1  0  0  0  0
  7  8  2  0  0  0  0
  8  9  1  0  0  0  0
  9 10  1  0  0  0  0
  9 11  1  0  0  0  0
  9 19  1  0  0  0  0
 11 20  1  0  0  0  0
 11 21  1  0  0  0  0
 11 22  1  0  0  0  0
 12 23  1  0  0  0  0
 12 24  1  0  0  0  0
 12 25  1  0  0  0  0
M  END
$$$$
