heavy water
  -OEChem-10252222453D

  3  2  0     0  0  0  0  0  0999 V2000
    0.0000    0.0000    0.0000 O   0  0  0  0  0  0  0  0  0  0  0  0
    0.2774    0.8929    0.2544 D   0  0  0  0  0  0  0  0  0  0  0  0
    0.6068   -0.2383   -0.7169 D   0  0  0  0  0  0  0  0  0  0  0  0
  1  2  1  0  0  0  0
  1  3  1  0  0  0  0
M  END
