
 OpenBabel12012402293D

 22 21  0  0  0  0  0  0  0  0999 V2000
    1.0179    0.0484    0.0845 C   0  0  0  0  0  0  0  0  0  0  0  0
    2.5370    0.0566    0.0719 C   0  0  0  0  0  0  0  0  0  0  0  0
    3.0770    0.6660   -1.2210 C   0  0  0  0  0  0  0  0  0  0  0  0
    4.6056    0.6742   -1.2368 C   0  0  0  0  0  0  0  0  0  0  0  0
    5.1353    1.2861   -2.5328 C   0  0  0  0  0  0  0  0  0  0  0  0
    6.6590    1.3010   -2.5608 C   0  0  0  0  0  0  0  0  0  0  0  0
    7.2037    1.9027   -3.8338 C   0  0  0  0  0  0  0  0  0  0  0  0
    6.5149    2.3362   -4.7514 O   0  0  0  0  0  0  0  0  0  0  0  0
    0.6483   -0.3908    1.0171 H   0  0  0  0  0  0  0  0  0  0  0  0
    0.6223   -0.5405   -0.7492 H   0  0  0  0  0  0  0  0  0  0  0  0
    0.6198    1.0652    0.0062 H   0  0  0  0  0  0  0  0  0  0  0  0
    2.9052   -0.9700    0.1816 H   0  0  0  0  0  0  0  0  0  0  0  0
    2.9029    0.6272    0.9334 H   0  0  0  0  0  0  0  0  0  0  0  0
    2.7028    1.6916   -1.3280 H   0  0  0  0  0  0  0  0  0  0  0  0
    2.7037    0.0953   -2.0802 H   0  0  0  0  0  0  0  0  0  0  0  0
    4.9809   -0.3510   -1.1325 H   0  0  0  0  0  0  0  0  0  0  0  0
    4.9802    1.2455   -0.3789 H   0  0  0  0  0  0  0  0  0  0  0  0
    4.7543    2.3094   -2.6403 H   0  0  0  0  0  0  0  0  0  0  0  0
    4.7560    0.7176   -3.3912 H   0  0  0  0  0  0  0  0  0  0  0  0
    7.0545    0.2829   -2.4818 H   0  0  0  0  0  0  0  0  0  0  0  0
    7.0528    1.8876   -1.7241 H   0  0  0  0  0  0  0  0  0  0  0  0
    8.3043    1.9344   -3.8999 H   0  0  0  0  0  0  0  0  0  0  0  0
  1  2  1  0  0  0  0
  1  9  1  0  0  0  0
  1 10  1  0  0  0  0
  1 11  1  0  0  0  0
  2  3  1  0  0  0  0
  2 12  1  0  0  0  0
  2 13  1  0  0  0  0
  3  4  1  0  0  0  0
  3 14  1  0  0  0  0
  3 15  1  0  0  0  0
  4  5  1  0  0  0  0
  4 16  1  0  0  0  0
  4 17  1  0  0  0  0
  5  6  1  0  0  0  0
  5 18  1  0  0  0  0
  5 19  1  0  0  0  0
  6  7  1  0  0  0  0
  6 20  1  0  0  0  0
  6 21  1  0  0  0  0
  7  8  2  0  0  0  0
  7 22  1  0  0  0  0
M  END
$$$$
