
 OpenBabel12032419203D

 24 23  0  0  0  0  0  0  0  0999 V2000
    0.9974    0.0677    0.0390 C   0  0  0  0  0  0  0  0  0  0  0  0
    2.5176    0.0822    0.0335 C   0  0  0  0  0  0  0  0  0  0  0  0
    3.0595    1.4710   -0.3017 C   0  0  0  0  0  0  0  0  0  0  0  0
    4.5883    1.4859   -0.3057 C   0  0  0  0  0  0  0  0  0  0  0  0
    5.1266    2.8776   -0.6399 C   0  0  0  0  0  0  0  0  0  0  0  0
    6.6568    2.8956   -0.6458 C   0  0  0  0  0  0  0  0  0  0  0  0
    7.1822    4.2889   -0.9793 C   0  0  0  0  0  0  0  0  0  0  0  0
    8.9976    4.3034   -0.9866 S   0  0  0  0  0  0  0  0  0  0  0  0
    0.6288   -0.9334    0.2808 H   0  0  0  0  0  0  0  0  0  0  0  0
    0.5993    0.3495   -0.9409 H   0  0  0  0  0  0  0  0  0  0  0  0
    0.6017    0.7650    0.7843 H   0  0  0  0  0  0  0  0  0  0  0  0
    2.8824   -0.6472   -0.6989 H   0  0  0  0  0  0  0  0  0  0  0  0
    2.8845   -0.2337    1.0170 H   0  0  0  0  0  0  0  0  0  0  0  0
    2.6869    2.1976    0.4306 H   0  0  0  0  0  0  0  0  0  0  0  0
    2.6866    1.7834   -1.2849 H   0  0  0  0  0  0  0  0  0  0  0  0
    4.9614    0.7610   -1.0395 H   0  0  0  0  0  0  0  0  0  0  0  0
    4.9619    1.1732    0.6770 H   0  0  0  0  0  0  0  0  0  0  0  0
    4.7537    3.6018    0.0947 H   0  0  0  0  0  0  0  0  0  0  0  0
    4.7515    3.1907   -1.6219 H   0  0  0  0  0  0  0  0  0  0  0  0
    7.0229    2.1683   -1.3813 H   0  0  0  0  0  0  0  0  0  0  0  0
    7.0238    2.5794    0.3388 H   0  0  0  0  0  0  0  0  0  0  0  0
    6.8323    5.0196   -0.2431 H   0  0  0  0  0  0  0  0  0  0  0  0
    6.8306    4.6068   -1.9661 H   0  0  0  0  0  0  0  0  0  0  0  0
    9.1603    3.9470    0.2961 H   0  0  0  0  0  0  0  0  0  0  0  0
  1  2  1  0  0  0  0
  1  9  1  0  0  0  0
  1 10  1  0  0  0  0
  1 11  1  0  0  0  0
  2  3  1  0  0  0  0
  2 12  1  0  0  0  0
  2 13  1  0  0  0  0
  3  4  1  0  0  0  0
  3 14  1  0  0  0  0
  3 15  1  0  0  0  0
  4  5  1  0  0  0  0
  4 16  1  0  0  0  0
  4 17  1  0  0  0  0
  5  6  1  0  0  0  0
  5 18  1  0  0  0  0
  5 19  1  0  0  0  0
  6  7  1  0  0  0  0
  6 20  1  0  0  0  0
  6 21  1  0  0  0  0
  7  8  1  0  0  0  0
  7 22  1  0  0  0  0
  7 23  1  0  0  0  0
  8 24  1  0  0  0  0
M  END
$$$$
