
 OpenBabel12192420463D

 21 20  0  0  0  0  0  0  0  0999 V2000
    1.0431   -0.0197   -0.0654 C   0  0  0  0  0  0  0  0  0  0  0  0
    2.5631   -0.0073   -0.0744 C   0  0  0  0  0  0  0  0  0  0  0  0
    3.0976    1.3218   -0.6087 C   0  0  0  0  0  0  0  0  0  0  0  0
    4.6249    1.3436   -0.6216 C   0  0  0  0  0  0  0  0  0  0  0  0
    5.1515    2.6768   -1.1567 C   0  0  0  0  0  0  0  0  0  0  0  0
    6.6766    2.6919   -1.1676 C   0  0  0  0  0  0  0  0  0  0  0  0
    7.3005    4.2744   -1.8022 S   0  0  0  0  0  0  0  0  0  0  0  0
    0.6729   -0.9753    0.3176 H   0  0  0  0  0  0  0  0  0  0  0  0
    0.6459    0.1202   -1.0759 H   0  0  0  0  0  0  0  0  0  0  0  0
    0.6500    0.7792    0.5716 H   0  0  0  0  0  0  0  0  0  0  0  0
    2.9277   -0.8334   -0.6959 H   0  0  0  0  0  0  0  0  0  0  0  0
    2.9325   -0.1767    0.9429 H   0  0  0  0  0  0  0  0  0  0  0  0
    2.7234    2.1438    0.0144 H   0  0  0  0  0  0  0  0  0  0  0  0
    2.7184    1.4875   -1.6244 H   0  0  0  0  0  0  0  0  0  0  0  0
    4.9997    0.5223   -1.2441 H   0  0  0  0  0  0  0  0  0  0  0  0
    5.0043    1.1793    0.3946 H   0  0  0  0  0  0  0  0  0  0  0  0
    4.7706    3.4926   -0.5293 H   0  0  0  0  0  0  0  0  0  0  0  0
    4.7642    2.8361   -2.1710 H   0  0  0  0  0  0  0  0  0  0  0  0
    7.0650    1.8859   -1.7986 H   0  0  0  0  0  0  0  0  0  0  0  0
    7.0683    2.5487   -0.1555 H   0  0  0  0  0  0  0  0  0  0  0  0
    6.7373    4.1900   -3.0165 H   0  0  0  0  0  0  0  0  0  0  0  0
  1  2  1  0  0  0  0
  1  8  1  0  0  0  0
  1  9  1  0  0  0  0
  1 10  1  0  0  0  0
  2  3  1  0  0  0  0
  2 11  1  0  0  0  0
  2 12  1  0  0  0  0
  3  4  1  0  0  0  0
  3 13  1  0  0  0  0
  3 14  1  0  0  0  0
  4  5  1  0  0  0  0
  4 15  1  0  0  0  0
  4 16  1  0  0  0  0
  5  6  1  0  0  0  0
  5 17  1  0  0  0  0
  5 18  1  0  0  0  0
  6  7  1  0  0  0  0
  6 19  1  0  0  0  0
  6 20  1  0  0  0  0
  7 21  1  0  0  0  0
M  END
$$$$
