
 OpenBabel12022416193D

 19 18  0  0  0  0  0  0  0  0999 V2000
    1.0013   -0.0681    0.0910 C   0  0  0  0  0  0  0  0  0  0  0  0
    2.5203   -0.0559    0.0808 C   0  0  0  0  0  0  0  0  0  0  0  0
    3.0557    0.9390   -0.9480 C   0  0  0  0  0  0  0  0  0  0  0  0
    4.5820    0.9518   -0.9613 C   0  0  0  0  0  0  0  0  0  0  0  0
    5.1192    1.9440   -1.9871 C   0  0  0  0  0  0  0  0  0  0  0  0
    6.6271    1.9724   -2.0165 C   0  0  0  0  0  0  0  0  0  0  0  0
    7.3528    1.2850   -1.3058 O   0  0  0  0  0  0  0  0  0  0  0  0
    0.6337   -0.7847    0.8325 H   0  0  0  0  0  0  0  0  0  0  0  0
    0.6059   -0.3564   -0.8883 H   0  0  0  0  0  0  0  0  0  0  0  0
    0.6039    0.9199    0.3445 H   0  0  0  0  0  0  0  0  0  0  0  0
    2.8887   -1.0631   -0.1463 H   0  0  0  0  0  0  0  0  0  0  0  0
    2.8868    0.2062    1.0801 H   0  0  0  0  0  0  0  0  0  0  0  0
    2.6807    1.9433   -0.7173 H   0  0  0  0  0  0  0  0  0  0  0  0
    2.6809    0.6747   -1.9441 H   0  0  0  0  0  0  0  0  0  0  0  0
    4.9585   -0.0533   -1.1882 H   0  0  0  0  0  0  0  0  0  0  0  0
    4.9582    1.2116    0.0361 H   0  0  0  0  0  0  0  0  0  0  0  0
    4.7717    2.9577   -1.7595 H   0  0  0  0  0  0  0  0  0  0  0  0
    4.7719    1.6823   -2.9927 H   0  0  0  0  0  0  0  0  0  0  0  0
    7.0651    2.6770   -2.7449 H   0  0  0  0  0  0  0  0  0  0  0  0
  1  2  1  0  0  0  0
  1  8  1  0  0  0  0
  1  9  1  0  0  0  0
  1 10  1  0  0  0  0
  2  3  1  0  0  0  0
  2 11  1  0  0  0  0
  2 12  1  0  0  0  0
  3  4  1  0  0  0  0
  3 13  1  0  0  0  0
  3 14  1  0  0  0  0
  4  5  1  0  0  0  0
  4 15  1  0  0  0  0
  4 16  1  0  0  0  0
  5  6  1  0  0  0  0
  5 17  1  0  0  0  0
  5 18  1  0  0  0  0
  6  7  2  0  0  0  0
  6 19  1  0  0  0  0
M  END
$$$$
