
 OpenBabel07232511383D

 32 31  0  0  0  0  0  0  0  0999 V2000
    3.0122   -3.9073   -3.6065 C   0  0  0  0  0  0  0  0  0  0  0  0
    2.5896   -2.6651   -2.8342 C   0  0  0  0  0  0  0  0  0  0  0  0
    3.0969   -2.6638   -1.3952 C   0  0  0  0  0  0  0  0  0  0  0  0
    4.5994   -2.7124   -1.3058 C   0  0  0  0  0  0  0  0  0  0  0  0
    5.2175   -3.5955   -0.7226 O   0  0  0  0  0  0  0  0  0  0  0  0
    5.1597   -1.6518   -1.9482 O   0  0  0  0  0  0  0  0  0  0  0  0
    6.5925   -1.6324   -1.9651 C   0  0  0  0  0  0  0  0  0  0  0  0
    7.1172   -2.5479   -3.0686 C   0  0  0  0  0  0  0  0  0  0  0  0
    8.6423   -2.5651   -3.0923 C   0  0  0  0  0  0  0  0  0  0  0  0
    9.1704   -3.5011   -4.1795 C   0  0  0  0  0  0  0  0  0  0  0  0
   10.6981   -3.5193   -4.1979 C   0  0  0  0  0  0  0  0  0  0  0  0
   11.2271   -4.4487   -5.2775 C   0  0  0  0  0  0  0  0  0  0  0  0
    2.6143   -3.8706   -4.6256 H   0  0  0  0  0  0  0  0  0  0  0  0
    2.6338   -4.8147   -3.1261 H   0  0  0  0  0  0  0  0  0  0  0  0
    4.1010   -3.9847   -3.6784 H   0  0  0  0  0  0  0  0  0  0  0  0
    1.4949   -2.6098   -2.8228 H   0  0  0  0  0  0  0  0  0  0  0  0
    2.9478   -1.7753   -3.3646 H   0  0  0  0  0  0  0  0  0  0  0  0
    2.6955   -3.5301   -0.8564 H   0  0  0  0  0  0  0  0  0  0  0  0
    2.7526   -1.7690   -0.8648 H   0  0  0  0  0  0  0  0  0  0  0  0
    6.9941   -1.9044   -0.9816 H   0  0  0  0  0  0  0  0  0  0  0  0
    6.8974   -0.5986   -2.1598 H   0  0  0  0  0  0  0  0  0  0  0  0
    6.7212   -2.2143   -4.0357 H   0  0  0  0  0  0  0  0  0  0  0  0
    6.7366   -3.5660   -2.9261 H   0  0  0  0  0  0  0  0  0  0  0  0
    9.0195   -2.8907   -2.1150 H   0  0  0  0  0  0  0  0  0  0  0  0
    9.0195   -1.5498   -3.2632 H   0  0  0  0  0  0  0  0  0  0  0  0
    8.7934   -3.1788   -5.1572 H   0  0  0  0  0  0  0  0  0  0  0  0
    8.7925   -4.5161   -4.0058 H   0  0  0  0  0  0  0  0  0  0  0  0
   11.0782   -3.8461   -3.2229 H   0  0  0  0  0  0  0  0  0  0  0  0
   11.0807   -2.5071   -4.3727 H   0  0  0  0  0  0  0  0  0  0  0  0
   10.8861   -5.4756   -5.1120 H   0  0  0  0  0  0  0  0  0  0  0  0
   12.3223   -4.4494   -5.2731 H   0  0  0  0  0  0  0  0  0  0  0  0
   10.8919   -4.1300   -6.2702 H   0  0  0  0  0  0  0  0  0  0  0  0
  1  2  1  0  0  0  0
  1 13  1  0  0  0  0
  1 14  1  0  0  0  0
  1 15  1  0  0  0  0
  2  3  1  0  0  0  0
  2 16  1  0  0  0  0
  2 17  1  0  0  0  0
  3  4  1  0  0  0  0
  3 18  1  0  0  0  0
  3 19  1  0  0  0  0
  4  5  2  0  0  0  0
  4  6  1  0  0  0  0
  6  7  1  0  0  0  0
  7  8  1  0  0  0  0
  7 20  1  0  0  0  0
  7 21  1  0  0  0  0
  8  9  1  0  0  0  0
  8 22  1  0  0  0  0
  8 23  1  0  0  0  0
  9 10  1  0  0  0  0
  9 24  1  0  0  0  0
  9 25  1  0  0  0  0
 10 11  1  0  0  0  0
 10 26  1  0  0  0  0
 10 27  1  0  0  0  0
 11 12  1  0  0  0  0
 11 28  1  0  0  0  0
 11 29  1  0  0  0  0
 12 30  1  0  0  0  0
 12 31  1  0  0  0  0
 12 32  1  0  0  0  0
M  END
$$$$
