
 OpenBabel09142409213D

 10  9  0  0  0  0  0  0  0  0999 V2000
    2.7466    1.0663   -0.5857 O   0  0  0  0  0  0  0  0  0  0  0  0
    2.3918   -0.0015    0.0066 C   0  0  0  0  0  0  0  0  0  0  0  0
    1.5423   -0.1248    0.9408 O   0  5  0  0  0  0  0  0  0  0  0  0
    3.1504   -1.2441   -0.4056 C   0  0  0  0  0  0  0  0  0  0  0  0
    2.5254   -2.2834   -0.6374 O   0  0  0  0  0  0  0  0  0  0  0  0
    4.6514   -1.1339   -0.4746 C   0  0  0  0  0  0  0  0  0  0  0  0
    5.2371   -2.3796   -0.8673 O   0  0  0  0  0  0  0  0  0  0  0  0
    5.0332   -0.8822    0.5186 H   0  0  0  0  0  0  0  0  0  0  0  0
    4.9496   -0.3701   -1.1971 H   0  0  0  0  0  0  0  0  0  0  0  0
    4.4932   -3.0172   -0.8556 H   0  0  0  0  0  0  0  0  0  0  0  0
  1  2  2  0  0  0  0
  2  3  1  0  0  0  0
  2  4  1  0  0  0  0
  4  5  2  0  0  0  0
  4  6  1  0  0  0  0
  6  7  1  0  0  0  0
  6  8  1  0  0  0  0
  6  9  1  0  0  0  0
  7 10  1  0  0  0  0
M  CHG  1   3  -1
M  END
$$$$
