
 OpenBabel10132521143D

 40 42  0  0  1  0  0  0  0  0999 V2000
    3.0688    0.6909   -0.7837 C   0  0  0  0  0  0  0  0  0  0  0  0
    3.8136    0.3775    0.5582 C   0  0  3  0  0  0  0  0  0  0  0  0
    4.5146    1.4269    1.6244 C   0  0  2  0  0  0  0  0  0  0  0  0
    3.4367    1.8197    2.8617 C   0  0  1  0  0  0  0  0  0  0  0  0
    2.3751    1.6617    1.8456 C   0  0  2  0  0  0  0  0  0  0  0  0
    2.7673    0.0043    1.5568 C   0  0  2  0  0  0  0  0  0  0  0  0
    3.7474   -1.0310    2.4164 C   0  0  0  0  0  0  0  0  0  0  0  0
    3.9325   -1.1370    3.9251 C   0  0  0  0  0  0  0  0  0  0  0  0
    3.9576    0.1592    4.7050 C   0  0  0  0  0  0  0  0  0  0  0  0
    2.9059    1.1247    4.1998 C   0  0  0  0  0  0  0  0  0  0  0  0
    1.4935    0.4167    4.2126 C   0  0  0  0  0  0  0  0  0  0  0  0
    2.6875    2.2449    5.2611 C   0  0  0  0  0  0  0  0  0  0  0  0
    1.5200   -0.8019    1.1659 C   0  0  0  0  0  0  0  0  0  0  0  0
    2.8706    2.9379    0.8898 C   0  0  0  0  0  0  0  0  0  0  0  0
    4.3521    2.6942    0.8865 C   0  0  0  0  0  0  0  0  0  0  0  0
    5.2350    3.3726    0.3910 O   0  0  0  0  0  0  0  0  0  0  0  0
    3.6570    1.2693   -1.4916 H   0  0  0  0  0  0  0  0  0  0  0  0
    2.0831    1.1616   -0.6627 H   0  0  0  0  0  0  0  0  0  0  0  0
    2.8005   -0.2547   -1.2727 H   0  0  0  0  0  0  0  0  0  0  0  0
    4.5584   -0.3848    0.2595 H   0  0  0  0  0  0  0  0  0  0  0  0
    5.5235    1.1962    1.9667 H   0  0  0  0  0  0  0  0  0  0  0  0
    3.6523    2.8628    3.1400 H   0  0  0  0  0  0  0  0  0  0  0  0
    1.3352    1.8449    2.0907 H   0  0  0  0  0  0  0  0  0  0  0  0
    4.7969   -0.9361    2.0856 H   0  0  0  0  0  0  0  0  0  0  0  0
    3.5195   -2.0434    2.0504 H   0  0  0  0  0  0  0  0  0  0  0  0
    4.8929   -1.6424    4.1164 H   0  0  0  0  0  0  0  0  0  0  0  0
    3.1809   -1.8192    4.3320 H   0  0  0  0  0  0  0  0  0  0  0  0
    4.9466    0.6293    4.6569 H   0  0  0  0  0  0  0  0  0  0  0  0
    3.7874   -0.0814    5.7628 H   0  0  0  0  0  0  0  0  0  0  0  0
    1.5012   -0.6018    3.8295 H   0  0  0  0  0  0  0  0  0  0  0  0
    0.7158    0.9616    3.6729 H   0  0  0  0  0  0  0  0  0  0  0  0
    1.1066    0.3138    5.2335 H   0  0  0  0  0  0  0  0  0  0  0  0
    3.5741    2.8610    5.4090 H   0  0  0  0  0  0  0  0  0  0  0  0
    2.4182    1.8152    6.2343 H   0  0  0  0  0  0  0  0  0  0  0  0
    1.8511    2.8939    4.9639 H   0  0  0  0  0  0  0  0  0  0  0  0
    0.6494   -0.1599    1.0162 H   0  0  0  0  0  0  0  0  0  0  0  0
    1.2443   -1.5072    1.9616 H   0  0  0  0  0  0  0  0  0  0  0  0
    1.6719   -1.4126    0.2746 H   0  0  0  0  0  0  0  0  0  0  0  0
    2.6943    3.8989    1.3864 H   0  0  0  0  0  0  0  0  0  0  0  0
    2.4934    2.9892   -0.1291 H   0  0  0  0  0  0  0  0  0  0  0  0
  1  2  1  0  0  0  0
  1 17  1  0  0  0  0
  1 18  1  0  0  0  0
  1 19  1  0  0  0  0
  2  3  1  0  0  0  0
  2  6  1  0  0  0  0
  2 20  1  0  0  0  0
  3  4  1  0  0  0  0
  3 15  1  0  0  0  0
  3 21  1  1  0  0  0
  4  5  1  0  0  0  0
  4 10  1  0  0  0  0
  4 22  1  1  0  0  0
  5  6  1  0  0  0  0
  5 14  1  0  0  0  0
  5 23  1  1  0  0  0
  6  7  1  0  0  0  0
  6 13  1  6  0  0  0
  7  8  1  0  0  0  0
  7 24  1  0  0  0  0
  7 25  1  0  0  0  0
  8  9  1  0  0  0  0
  8 26  1  0  0  0  0
  8 27  1  0  0  0  0
  9 10  1  0  0  0  0
  9 28  1  0  0  0  0
  9 29  1  0  0  0  0
 10 11  1  0  0  0  0
 10 12  1  0  0  0  0
 11 30  1  0  0  0  0
 11 31  1  0  0  0  0
 11 32  1  0  0  0  0
 12 33  1  0  0  0  0
 12 34  1  0  0  0  0
 12 35  1  0  0  0  0
 13 36  1  0  0  0  0
 13 37  1  0  0  0  0
 13 38  1  0  0  0  0
 14 15  1  0  0  0  0
 14 39  1  0  0  0  0
 14 40  1  0  0  0  0
 15 16  2  0  0  0  0
M  END
$$$$
