TheMolecule
  AROMA-2510271937403D
https://github.com/primaryodors/aroma
 29 29  0     0  0  0  0  0  0999 V2000
   -2.6344    1.0929    0.0256 C   0  0  0  0  0  0  0  0  0  0  0  0
   -1.3105    0.4009   -0.3487 C   0  0  0  0  0  0  0  0  0  0  0  0
   -1.3400   -1.0945    0.0182 C   0  0  0  0  0  0  0  0  0  0  0  0
   -0.1913   -1.4559    0.9781 C   0  0  0  0  0  0  0  0  0  0  0  0
    1.1972   -1.1345    0.3945 C   0  0  0  0  0  0  0  0  0  0  0  0
    1.2120    0.3663    0.0497 C   0  0  0  0  0  0  0  0  0  0  0  0
    2.2014    0.9746   -0.2520 O   0  0  0  0  0  0  0  0  0  0  0  0
   -0.1116    1.1072    0.3112 C   0  0  0  0  0  0  0  0  0  0  0  0
    2.3727   -1.4825    1.3264 C   0  0  0  0  0  0  0  0  0  0  0  0
    2.3689   -3.0193    1.4249 C   0  0  0  0  0  0  0  0  0  0  0  0
    2.2187   -0.8803    2.7354 C   0  0  0  0  0  0  0  0  0  0  0  0
   -3.4617    0.5984   -0.4834 H   0  0  0  0  0  0  0  0  0  0  0  0
   -2.5968    2.1383   -0.2807 H   0  0  0  0  0  0  0  0  0  0  0  0
   -2.7899    1.0434    1.1033 H   0  0  0  0  0  0  0  0  0  0  0  0
   -1.1784    0.4653   -1.4287 H   0  0  0  0  0  0  0  0  0  0  0  0
   -1.2725   -1.7002   -0.8855 H   0  0  0  0  0  0  0  0  0  0  0  0
   -2.2896   -1.3459    0.4905 H   0  0  0  0  0  0  0  0  0  0  0  0
   -0.2732   -2.5419    0.9332 H   0  0  0  0  0  0  0  0  0  0  0  0
   -0.2655   -1.1366    2.0176 H   0  0  0  0  0  0  0  0  0  0  0  0
    1.2844   -1.6943   -0.5367 H   0  0  0  0  0  0  0  0  0  0  0  0
   -0.0122    2.1133   -0.0961 H   0  0  0  0  0  0  0  0  0  0  0  0
   -0.2992    1.1562    1.3838 H   0  0  0  0  0  0  0  0  0  0  0  0
    3.2764   -1.1558    0.8120 H   0  0  0  0  0  0  0  0  0  0  0  0
    1.4946   -3.3268    1.9986 H   0  0  0  0  0  0  0  0  0  0  0  0
    3.2772   -3.1803    2.0055 H   0  0  0  0  0  0  0  0  0  0  0  0
    2.4083   -3.5105    0.4526 H   0  0  0  0  0  0  0  0  0  0  0  0
    1.2808   -1.1961    3.1923 H   0  0  0  0  0  0  0  0  0  0  0  0
    2.2438    0.2089    2.7038 H   0  0  0  0  0  0  0  0  0  0  0  0
    3.0383   -1.2011    3.3784 H   0  0  0  0  0  0  0  0  0  0  0  0
  1  2 1.00  0  0  0  0
  1 12 1.00  0  0  0  0
  1 13 1.00  0  0  0  0
  1 14 1.00  0  0  0  0
  2  3 1.00  0  0  0  0
  2  8 1.00  0  0  0  0
  2 15 1.00  0  0  0  0
  3  4 1.00  0  0  0  0
  3 16 1.00  0  0  0  0
  3 17 1.00  0  0  0  0
  4  5 1.00  0  0  0  0
  4 18 1.00  0  0  0  0
  4 19 1.00  0  0  0  0
  5  6 1.00  0  0  0  0
  5  9 1.00  0  0  0  0
  5 20 1.00  0  0  0  0
  6  7 2.00  0  0  0  0
  6  8 1.00  0  0  0  0
  8 21 1.00  0  0  0  0
  8 22 1.00  0  0  0  0
  9 10 1.00  0  0  0  0
  9 11 1.00  0  0  0  0
  9 23 1.00  0  0  0  0
 10 24 1.00  0  0  0  0
 10 25 1.00  0  0  0  0
 10 26 1.00  0  0  0  0
 11 27 1.00  0  0  0  0
 11 28 1.00  0  0  0  0
 11 29 1.00  0  0  0  0
M  END

