
 OpenBabel10142501243D

 38 39  0  0  1  0  0  0  0  0999 V2000
    3.2491    0.5980    1.4866 C   0  0  0  0  0  0  0  0  0  0  0  0
    2.5553    0.1302    0.2051 C   0  0  1  0  0  0  0  0  0  0  0  0
    3.1367    0.8459   -1.0147 C   0  0  0  0  0  0  0  0  0  0  0  0
    3.8568   -0.2280   -1.7593 C   0  0  0  0  0  0  0  0  0  0  0  0
    4.7244   -0.0017   -2.5958 O   0  0  0  0  0  0  0  0  0  0  0  0
    3.3742   -1.5848   -1.3646 C   0  0  0  0  0  0  0  0  0  0  0  0
    3.5127   -2.7253   -2.0729 C   0  0  0  0  0  0  0  0  0  0  0  0
    4.1127   -2.8022   -3.4598 C   0  0  0  0  0  0  0  0  0  0  0  0
    2.9904   -4.0729   -1.6019 C   0  0  0  0  0  0  0  0  0  0  0  0
    3.3375   -4.4997   -0.1684 C   0  0  0  0  0  0  0  0  0  0  0  0
    2.5506   -3.7320    0.9014 C   0  0  2  0  0  0  0  0  0  0  0  0
    3.0380   -2.2833    1.0606 C   0  0  0  0  0  0  0  0  0  0  0  0
    2.5716   -1.3953   -0.0957 C   0  0  1  0  0  0  0  0  0  0  0  0
    2.5393   -4.4294    2.2584 C   0  0  0  0  0  0  0  0  0  0  0  0
    1.3740   -4.7937    2.8211 C   0  0  0  0  0  0  0  0  0  0  0  0
    3.8459   -4.6446    2.9712 C   0  0  0  0  0  0  0  0  0  0  0  0
    3.1380    1.6830    1.5987 H   0  0  0  0  0  0  0  0  0  0  0  0
    4.3180    0.3654    1.4804 H   0  0  0  0  0  0  0  0  0  0  0  0
    2.7954    0.1537    2.3780 H   0  0  0  0  0  0  0  0  0  0  0  0
    1.5050    0.4371    0.3098 H   0  0  0  0  0  0  0  0  0  0  0  0
    3.8308    1.6440   -0.7431 H   0  0  0  0  0  0  0  0  0  0  0  0
    2.3425    1.2487   -1.6571 H   0  0  0  0  0  0  0  0  0  0  0  0
    4.4022   -1.8436   -3.8888 H   0  0  0  0  0  0  0  0  0  0  0  0
    3.3750   -3.2302   -4.1501 H   0  0  0  0  0  0  0  0  0  0  0  0
    4.9951   -3.4494   -3.4587 H   0  0  0  0  0  0  0  0  0  0  0  0
    3.4058   -4.8520   -2.2549 H   0  0  0  0  0  0  0  0  0  0  0  0
    1.9051   -4.1094   -1.7611 H   0  0  0  0  0  0  0  0  0  0  0  0
    4.4188   -4.4061   -0.0025 H   0  0  0  0  0  0  0  0  0  0  0  0
    3.1032   -5.5690   -0.0799 H   0  0  0  0  0  0  0  0  0  0  0  0
    1.5054   -3.6933    0.5600 H   0  0  0  0  0  0  0  0  0  0  0  0
    4.1328   -2.2513    1.1531 H   0  0  0  0  0  0  0  0  0  0  0  0
    2.6282   -1.9003    2.0011 H   0  0  0  0  0  0  0  0  0  0  0  0
    1.5315   -1.6581   -0.3380 H   0  0  0  0  0  0  0  0  0  0  0  0
    1.3311   -5.2652    3.7986 H   0  0  0  0  0  0  0  0  0  0  0  0
    0.4228   -4.6172    2.3261 H   0  0  0  0  0  0  0  0  0  0  0  0
    3.6991   -5.1080    3.9534 H   0  0  0  0  0  0  0  0  0  0  0  0
    4.3576   -3.6921    3.1401 H   0  0  0  0  0  0  0  0  0  0  0  0
    4.5017   -5.2992    2.3910 H   0  0  0  0  0  0  0  0  0  0  0  0
  1 17  1  0  0  0  0
  1 18  1  0  0  0  0
  1 19  1  0  0  0  0
  2  3  1  0  0  0  0
  2 13  1  0  0  0  0
  2  1  1  0  0  0  0
  2 20  1  1  0  0  0
  3  4  1  0  0  0  0
  3 21  1  0  0  0  0
  3 22  1  0  0  0  0
  4  6  1  0  0  0  0
  4  5  2  0  0  0  0
  6  7  2  0  0  0  0
  6 13  1  0  0  0  0
  7  9  1  0  0  0  0
  7  8  1  0  0  0  0
  8 23  1  0  0  0  0
  8 24  1  0  0  0  0
  8 25  1  0  0  0  0
  9 10  1  0  0  0  0
  9 26  1  0  0  0  0
  9 27  1  0  0  0  0
 10 11  1  0  0  0  0
 10 28  1  0  0  0  0
 10 29  1  0  0  0  0
 11 12  1  0  0  0  0
 11 14  1  0  0  0  0
 11 30  1  6  0  0  0
 12 13  1  0  0  0  0
 12 31  1  0  0  0  0
 12 32  1  0  0  0  0
 13 33  1  6  0  0  0
 14 15  2  0  0  0  0
 14 16  1  0  0  0  0
 15 34  1  0  0  0  0
 15 35  1  0  0  0  0
 16 36  1  0  0  0  0
 16 37  1  0  0  0  0
 16 38  1  0  0  0  0
M  END
$$$$
