
 OpenBabel09052420143D

 33 33  0  0  0  0  0  0  0  0999 V2000
    4.4475   -2.0374    5.3992 C   0  0  0  0  0  0  0  0  0  0  0  0
    4.0856   -2.8570    4.1720 C   0  0  0  0  0  0  0  0  0  0  0  0
    4.8023   -2.3463    2.9215 C   0  0  0  0  0  0  0  0  0  0  0  0
    4.4291   -3.1896    1.7001 C   0  0  0  0  0  0  0  0  0  0  0  0
    5.1208   -2.7385    0.4070 C   0  0  0  0  0  0  0  0  0  0  0  0
    6.6292   -2.7945    0.4391 C   0  0  0  0  0  0  0  0  0  0  0  0
    7.3877   -1.6961    0.2668 C   0  0  0  0  0  0  0  0  0  0  0  0
    8.8500   -1.6501    0.1839 C   0  0  0  0  0  0  0  0  0  0  0  0
    9.4744   -1.7455   -1.0650 C   0  0  0  0  0  0  0  0  0  0  0  0
   10.8657   -1.6855   -1.1622 C   0  0  0  0  0  0  0  0  0  0  0  0
   11.6380   -1.5314   -0.0106 C   0  0  0  0  0  0  0  0  0  0  0  0
   11.0171   -1.4418    1.2361 C   0  0  0  0  0  0  0  0  0  0  0  0
    9.6269   -1.4994    1.3356 C   0  0  0  0  0  0  0  0  0  0  0  0
    7.2490   -4.1384    0.6208 C   0  0  0  0  0  0  0  0  0  0  0  0
    6.6075   -5.1787    0.5222 O   0  0  0  0  0  0  0  0  0  0  0  0
    3.9247   -2.4245    6.2794 H   0  0  0  0  0  0  0  0  0  0  0  0
    4.1634   -0.9886    5.2681 H   0  0  0  0  0  0  0  0  0  0  0  0
    5.5234   -2.0812    5.5968 H   0  0  0  0  0  0  0  0  0  0  0  0
    3.0005   -2.8211    4.0209 H   0  0  0  0  0  0  0  0  0  0  0  0
    4.3535   -3.9052    4.3501 H   0  0  0  0  0  0  0  0  0  0  0  0
    5.8849   -2.3804    3.0902 H   0  0  0  0  0  0  0  0  0  0  0  0
    4.5340   -1.2984    2.7410 H   0  0  0  0  0  0  0  0  0  0  0  0
    3.3441   -3.1335    1.5445 H   0  0  0  0  0  0  0  0  0  0  0  0
    4.6542   -4.2431    1.9009 H   0  0  0  0  0  0  0  0  0  0  0  0
    4.7857   -1.7188    0.1745 H   0  0  0  0  0  0  0  0  0  0  0  0
    4.7637   -3.3627   -0.4218 H   0  0  0  0  0  0  0  0  0  0  0  0
    6.9127   -0.7283    0.1166 H   0  0  0  0  0  0  0  0  0  0  0  0
    8.8837   -1.8638   -1.9705 H   0  0  0  0  0  0  0  0  0  0  0  0
   11.3474   -1.7562   -2.1334 H   0  0  0  0  0  0  0  0  0  0  0  0
   12.7206   -1.4817   -0.0872 H   0  0  0  0  0  0  0  0  0  0  0  0
   11.6235   -1.3197    2.1313 H   0  0  0  0  0  0  0  0  0  0  0  0
    9.1589   -1.4221    2.3136 H   0  0  0  0  0  0  0  0  0  0  0  0
    8.3248   -4.1563    0.8554 H   0  0  0  0  0  0  0  0  0  0  0  0
  1  2  1  0  0  0  0
  1 16  1  0  0  0  0
  1 17  1  0  0  0  0
  1 18  1  0  0  0  0
  2  3  1  0  0  0  0
  2 19  1  0  0  0  0
  2 20  1  0  0  0  0
  3  4  1  0  0  0  0
  3 21  1  0  0  0  0
  3 22  1  0  0  0  0
  4  5  1  0  0  0  0
  4 23  1  0  0  0  0
  4 24  1  0  0  0  0
  5  6  1  0  0  0  0
  5 25  1  0  0  0  0
  5 26  1  0  0  0  0
  6  7  2  0  0  0  0
  6 14  1  0  0  0  0
  7  8  1  0  0  0  0
  7 27  1  0  0  0  0
  8  9  2  0  0  0  0
  8 13  1  0  0  0  0
  9 10  1  0  0  0  0
  9 28  1  0  0  0  0
 10 11  2  0  0  0  0
 10 29  1  0  0  0  0
 11 12  1  0  0  0  0
 11 30  1  0  0  0  0
 12 13  2  0  0  0  0
 12 31  1  0  0  0  0
 13 32  1  0  0  0  0
 14 15  2  0  0  0  0
 14 33  1  0  0  0  0
M  END
$$$$
