
 OpenBabel11112420033D

 28 28  0  0  1  0  0  0  0  0999 V2000
    1.0747    0.6684    1.5748 C   0  0  0  0  0  0  0  0  0  0  0  0
    2.5618    0.6685    1.4200 C   0  0  0  0  0  0  0  0  0  0  0  0
    3.1851    1.0911    0.3103 C   0  0  0  0  0  0  0  0  0  0  0  0
    4.6774    1.0722    0.1359 C   0  0  0  0  0  0  0  0  0  0  0  0
    5.2204    2.4869   -0.0798 C   0  0  0  0  0  0  0  0  0  0  0  0
    6.7408    2.4953   -0.2924 C   0  0  2  0  0  0  0  0  0  0  0  0
    7.3211    3.8821   -0.5443 C   0  0  0  0  0  0  0  0  0  0  0  0
    6.9312    4.4366   -1.9087 C   0  0  0  0  0  0  0  0  0  0  0  0
    6.5157    3.3678   -2.9078 C   0  0  0  0  0  0  0  0  0  0  0  0
    7.1371    2.0230   -2.6465 C   0  0  0  0  0  0  0  0  0  0  0  0
    7.5433    1.3036   -3.5518 O   0  0  0  0  0  0  0  0  0  0  0  0
    7.1406    1.6075   -1.3561 O   0  0  0  0  0  0  0  0  0  0  0  0
    0.8109    0.3919    2.6014 H   0  0  0  0  0  0  0  0  0  0  0  0
    0.6157   -0.0612    0.9027 H   0  0  0  0  0  0  0  0  0  0  0  0
    0.6560    1.6604    1.3792 H   0  0  0  0  0  0  0  0  0  0  0  0
    3.1390    0.2958    2.2595 H   0  0  0  0  0  0  0  0  0  0  0  0
    2.5967    1.4498   -0.5322 H   0  0  0  0  0  0  0  0  0  0  0  0
    4.9077    0.4395   -0.7292 H   0  0  0  0  0  0  0  0  0  0  0  0
    5.1669    0.6183    1.0050 H   0  0  0  0  0  0  0  0  0  0  0  0
    4.9767    3.1163    0.7857 H   0  0  0  0  0  0  0  0  0  0  0  0
    4.7014    2.9280   -0.9356 H   0  0  0  0  0  0  0  0  0  0  0  0
    7.2100    2.1000    0.6172 H   0  0  0  0  0  0  0  0  0  0  0  0
    8.4165    3.8017   -0.5205 H   0  0  0  0  0  0  0  0  0  0  0  0
    7.0419    4.5828    0.2505 H   0  0  0  0  0  0  0  0  0  0  0  0
    7.7747    5.0113   -2.3108 H   0  0  0  0  0  0  0  0  0  0  0  0
    6.1089    5.1539   -1.7961 H   0  0  0  0  0  0  0  0  0  0  0  0
    6.7887    3.6936   -3.9177 H   0  0  0  0  0  0  0  0  0  0  0  0
    5.4287    3.2347   -2.9150 H   0  0  0  0  0  0  0  0  0  0  0  0
  1  2  1  0  0  0  0
  1 13  1  0  0  0  0
  1 14  1  0  0  0  0
  1 15  1  0  0  0  0
  2  3  2  3  0  0  0
  2 16  1  0  0  0  0
  3  4  1  0  0  0  0
  3 17  1  0  0  0  0
  4  5  1  0  0  0  0
  4 18  1  0  0  0  0
  4 19  1  0  0  0  0
  5  6  1  0  0  0  0
  5 20  1  0  0  0  0
  5 21  1  0  0  0  0
  6  7  1  0  0  0  0
  6 12  1  0  0  0  0
  6 22  1  1  0  0  0
  7  8  1  0  0  0  0
  7 23  1  0  0  0  0
  7 24  1  0  0  0  0
  8  9  1  0  0  0  0
  8 25  1  0  0  0  0
  8 26  1  0  0  0  0
  9 10  1  0  0  0  0
  9 27  1  0  0  0  0
  9 28  1  0  0  0  0
 10 11  2  0  0  0  0
 10 12  1  0  0  0  0
M  END
$$$$
