
 OpenBabel12022413263D

 26 26  0  0  1  0  0  0  0  0999 V2000
    2.5507    0.0954    0.0964 C   0  0  0  0  0  0  0  0  0  0  0  0
    1.0501    0.0749    0.0346 C   0  0  0  0  0  0  0  0  0  0  0  0
    0.3216    1.1911   -0.1281 C   0  0  0  0  0  0  0  0  0  0  0  0
   -1.1813    1.2140   -0.1769 C   0  0  0  0  0  0  0  0  0  0  0  0
   -1.8563   -0.1038    0.2731 C   0  0  2  0  0  0  0  0  0  0  0  0
   -1.0602   -1.3031   -0.2801 C   0  0  0  0  0  0  0  0  0  0  0  0
    0.4053   -1.2812    0.1581 C   0  0  0  0  0  0  0  0  0  0  0  0
   -3.3474   -0.1133   -0.0758 C   0  0  0  0  0  0  0  0  0  0  0  0
   -3.9419   -1.0101   -0.8853 C   0  0  0  0  0  0  0  0  0  0  0  0
   -4.2053    0.9490    0.5640 C   0  0  0  0  0  0  0  0  0  0  0  0
    2.9505    1.1133    0.0375 H   0  0  0  0  0  0  0  0  0  0  0  0
    2.9706   -0.4771   -0.7359 H   0  0  0  0  0  0  0  0  0  0  0  0
    2.8978   -0.3470    1.0341 H   0  0  0  0  0  0  0  0  0  0  0  0
    0.8174    2.1543   -0.2325 H   0  0  0  0  0  0  0  0  0  0  0  0
   -1.4843    1.4680   -1.2012 H   0  0  0  0  0  0  0  0  0  0  0  0
   -1.5251    2.0335    0.4652 H   0  0  0  0  0  0  0  0  0  0  0  0
   -1.7907   -0.1607    1.3699 H   0  0  0  0  0  0  0  0  0  0  0  0
   -1.0963   -1.2983   -1.3783 H   0  0  0  0  0  0  0  0  0  0  0  0
   -1.5075   -2.2485    0.0524 H   0  0  0  0  0  0  0  0  0  0  0  0
    0.9535   -2.0083   -0.4511 H   0  0  0  0  0  0  0  0  0  0  0  0
    0.4826   -1.6112    1.2017 H   0  0  0  0  0  0  0  0  0  0  0  0
   -3.4020   -1.8094   -1.3788 H   0  0  0  0  0  0  0  0  0  0  0  0
   -5.0092   -0.9653   -1.0839 H   0  0  0  0  0  0  0  0  0  0  0  0
   -3.6457    1.5419    1.2948 H   0  0  0  0  0  0  0  0  0  0  0  0
   -5.0478    0.4955    1.0967 H   0  0  0  0  0  0  0  0  0  0  0  0
   -4.5942    1.6320   -0.1966 H   0  0  0  0  0  0  0  0  0  0  0  0
  1  2  1  0  0  0  0
  1 11  1  0  0  0  0
  1 12  1  0  0  0  0
  1 13  1  0  0  0  0
  2  3  2  0  0  0  0
  2  7  1  0  0  0  0
  3  4  1  0  0  0  0
  3 14  1  0  0  0  0
  4  5  1  0  0  0  0
  4 15  1  0  0  0  0
  4 16  1  0  0  0  0
  5  6  1  0  0  0  0
  5  8  1  0  0  0  0
  5 17  1  1  0  0  0
  6  7  1  0  0  0  0
  6 18  1  0  0  0  0
  6 19  1  0  0  0  0
  7 20  1  0  0  0  0
  7 21  1  0  0  0  0
  8  9  2  0  0  0  0
  8 10  1  0  0  0  0
  9 22  1  0  0  0  0
  9 23  1  0  0  0  0
 10 24  1  0  0  0  0
 10 25  1  0  0  0  0
 10 26  1  0  0  0  0
M  END
$$$$
