
 OpenBabel09092416593D

 37 36  0  0  0  0  0  0  0  0999 V2000
    0.9051    0.0065    0.0558 C   0  0  0  0  0  0  0  0  0  0  0  0
    2.4230    0.0089    0.0681 C   0  0  0  0  0  0  0  0  0  0  0  0
    2.9547    0.8081    1.2523 C   0  0  0  0  0  0  0  0  0  0  0  0
    4.4782    0.8146    1.2660 C   0  0  0  0  0  0  0  0  0  0  0  0
    4.9984    1.6135    2.4545 C   0  0  0  0  0  0  0  0  0  0  0  0
    6.5207    1.6224    2.4689 C   0  0  0  0  0  0  0  0  0  0  0  0
    7.0381    2.4204    3.6586 C   0  0  0  0  0  0  0  0  0  0  0  0
    8.5599    2.4295    3.6716 C   0  0  0  0  0  0  0  0  0  0  0  0
    9.0872    3.2261    4.8594 C   0  0  0  0  0  0  0  0  0  0  0  0
   10.6115    3.2256    4.8578 C   0  0  0  0  0  0  0  0  0  0  0  0
   11.1709    4.0138    6.0327 C   0  0  0  0  0  0  0  0  0  0  0  0
   12.7023    4.0504    6.0866 C   0  0  0  0  0  0  0  0  0  0  0  0
   13.3165    3.4363    5.1708 O   0  0  0  0  0  0  0  0  0  0  0  0
   13.1638    4.7048    7.0621 O   0  5  0  0  0  0  0  0  0  0  0  0
    0.5334   -0.5689   -0.7968 H   0  0  0  0  0  0  0  0  0  0  0  0
    0.5149    1.0263   -0.0223 H   0  0  0  0  0  0  0  0  0  0  0  0
    0.5091   -0.4431    0.9720 H   0  0  0  0  0  0  0  0  0  0  0  0
    2.7947    0.4390   -0.8693 H   0  0  0  0  0  0  0  0  0  0  0  0
    2.7889   -1.0232    0.1201 H   0  0  0  0  0  0  0  0  0  0  0  0
    2.5805    0.3764    2.1891 H   0  0  0  0  0  0  0  0  0  0  0  0
    2.5830    1.8391    1.2010 H   0  0  0  0  0  0  0  0  0  0  0  0
    4.8570    1.2510    0.3334 H   0  0  0  0  0  0  0  0  0  0  0  0
    4.8548   -0.2142    1.3190 H   0  0  0  0  0  0  0  0  0  0  0  0
    4.6223    1.1778    3.3885 H   0  0  0  0  0  0  0  0  0  0  0  0
    4.6230    2.6432    2.4033 H   0  0  0  0  0  0  0  0  0  0  0  0
    6.8975    2.0600    1.5362 H   0  0  0  0  0  0  0  0  0  0  0  0
    6.8974    0.5934    2.5193 H   0  0  0  0  0  0  0  0  0  0  0  0
    6.6611    1.9830    4.5911 H   0  0  0  0  0  0  0  0  0  0  0  0
    6.6609    3.4490    3.6067 H   0  0  0  0  0  0  0  0  0  0  0  0
    8.9346    2.8658    2.7372 H   0  0  0  0  0  0  0  0  0  0  0  0
    8.9349    1.3997    3.7200 H   0  0  0  0  0  0  0  0  0  0  0  0
    8.7140    2.7893    5.7938 H   0  0  0  0  0  0  0  0  0  0  0  0
    8.7136    4.2561    4.8100 H   0  0  0  0  0  0  0  0  0  0  0  0
   10.9750    3.6558    3.9162 H   0  0  0  0  0  0  0  0  0  0  0  0
   10.9756    2.1914    4.8982 H   0  0  0  0  0  0  0  0  0  0  0  0
   10.8087    3.5801    6.9733 H   0  0  0  0  0  0  0  0  0  0  0  0
   10.8083    5.0485    5.9885 H   0  0  0  0  0  0  0  0  0  0  0  0
  1  2  1  0  0  0  0
  1 15  1  0  0  0  0
  1 16  1  0  0  0  0
  1 17  1  0  0  0  0
  2  3  1  0  0  0  0
  2 18  1  0  0  0  0
  2 19  1  0  0  0  0
  3  4  1  0  0  0  0
  3 20  1  0  0  0  0
  3 21  1  0  0  0  0
  4  5  1  0  0  0  0
  4 22  1  0  0  0  0
  4 23  1  0  0  0  0
  5  6  1  0  0  0  0
  5 24  1  0  0  0  0
  5 25  1  0  0  0  0
  6  7  1  0  0  0  0
  6 26  1  0  0  0  0
  6 27  1  0  0  0  0
  7  8  1  0  0  0  0
  7 28  1  0  0  0  0
  7 29  1  0  0  0  0
  8  9  1  0  0  0  0
  8 30  1  0  0  0  0
  8 31  1  0  0  0  0
  9 10  1  0  0  0  0
  9 32  1  0  0  0  0
  9 33  1  0  0  0  0
 10 11  1  0  0  0  0
 10 34  1  0  0  0  0
 10 35  1  0  0  0  0
 11 12  1  0  0  0  0
 11 36  1  0  0  0  0
 11 37  1  0  0  0  0
 12 13  2  0  0  0  0
 12 14  1  0  0  0  0
M  CHG  1  14  -1
M  END
$$$$
