
 OpenBabel01032515193D

 37 36  0  0  0  0  0  0  0  0999 V2000
    1.0245   -0.0379    0.0883 C   0  0  0  0  0  0  0  0  0  0  0  0
    2.5414   -0.0389    0.0761 C   0  0  0  0  0  0  0  0  0  0  0  0
    3.0720   -0.6128   -1.2350 C   0  0  0  0  0  0  0  0  0  0  0  0
    4.5906   -0.6149   -1.2431 C   0  0  0  0  0  0  0  0  0  0  0  0
    5.1093   -1.1886   -2.5534 C   0  0  0  0  0  0  0  0  0  0  0  0
    6.6290   -1.1920   -2.5647 C   0  0  0  0  0  0  0  0  0  0  0  0
    7.1468   -1.7618   -3.8763 C   0  0  0  0  0  0  0  0  0  0  0  0
    8.6676   -1.7675   -3.8885 C   0  0  0  0  0  0  0  0  0  0  0  0
    9.1837   -2.3390   -5.2022 C   0  0  0  0  0  0  0  0  0  0  0  0
   10.7048   -2.3452   -5.2164 C   0  0  0  0  0  0  0  0  0  0  0  0
   11.2343   -2.9138   -6.5234 C   0  0  0  0  0  0  0  0  0  0  0  0
   12.7410   -2.9240   -6.5469 C   0  0  0  0  0  0  0  0  0  0  0  0
   13.4557   -2.5258   -5.6316 O   0  0  0  0  0  0  0  0  0  0  0  0
    0.6523    0.3749    1.0301 H   0  0  0  0  0  0  0  0  0  0  0  0
    0.6349   -1.0555   -0.0188 H   0  0  0  0  0  0  0  0  0  0  0  0
    0.6303    0.5693   -0.7329 H   0  0  0  0  0  0  0  0  0  0  0  0
    2.9140   -0.6304    0.9202 H   0  0  0  0  0  0  0  0  0  0  0  0
    2.9093    0.9846    0.2104 H   0  0  0  0  0  0  0  0  0  0  0  0
    2.6957   -0.0191   -2.0757 H   0  0  0  0  0  0  0  0  0  0  0  0
    2.6984   -1.6355   -1.3664 H   0  0  0  0  0  0  0  0  0  0  0  0
    4.9699   -1.2109   -0.4035 H   0  0  0  0  0  0  0  0  0  0  0  0
    4.9677    0.4077   -1.1111 H   0  0  0  0  0  0  0  0  0  0  0  0
    4.7337   -0.5916   -3.3956 H   0  0  0  0  0  0  0  0  0  0  0  0
    4.7325   -2.2113   -2.6900 H   0  0  0  0  0  0  0  0  0  0  0  0
    7.0065   -1.7893   -1.7253 H   0  0  0  0  0  0  0  0  0  0  0  0
    7.0063   -0.1700   -2.4293 H   0  0  0  0  0  0  0  0  0  0  0  0
    6.7704   -1.1643   -4.7158 H   0  0  0  0  0  0  0  0  0  0  0  0
    6.7704   -2.7836   -4.0113 H   0  0  0  0  0  0  0  0  0  0  0  0
    9.0429   -2.3649   -3.0486 H   0  0  0  0  0  0  0  0  0  0  0  0
    9.0433   -0.7459   -3.7527 H   0  0  0  0  0  0  0  0  0  0  0  0
    8.8064   -1.7405   -6.0402 H   0  0  0  0  0  0  0  0  0  0  0  0
    8.8063   -3.3602   -5.3355 H   0  0  0  0  0  0  0  0  0  0  0  0
   11.0804   -2.9385   -4.3733 H   0  0  0  0  0  0  0  0  0  0  0  0
   11.0804   -1.3240   -5.0756 H   0  0  0  0  0  0  0  0  0  0  0  0
   10.8851   -2.3153   -7.3717 H   0  0  0  0  0  0  0  0  0  0  0  0
   10.8851   -3.9423   -6.6639 H   0  0  0  0  0  0  0  0  0  0  0  0
   13.1913   -3.3256   -7.4703 H   0  0  0  0  0  0  0  0  0  0  0  0
  1  2  1  0  0  0  0
  1 14  1  0  0  0  0
  1 15  1  0  0  0  0
  1 16  1  0  0  0  0
  2  3  1  0  0  0  0
  2 17  1  0  0  0  0
  2 18  1  0  0  0  0
  3  4  1  0  0  0  0
  3 19  1  0  0  0  0
  3 20  1  0  0  0  0
  4  5  1  0  0  0  0
  4 21  1  0  0  0  0
  4 22  1  0  0  0  0
  5  6  1  0  0  0  0
  5 23  1  0  0  0  0
  5 24  1  0  0  0  0
  6  7  1  0  0  0  0
  6 25  1  0  0  0  0
  6 26  1  0  0  0  0
  7  8  1  0  0  0  0
  7 27  1  0  0  0  0
  7 28  1  0  0  0  0
  8  9  1  0  0  0  0
  8 29  1  0  0  0  0
  8 30  1  0  0  0  0
  9 10  1  0  0  0  0
  9 31  1  0  0  0  0
  9 32  1  0  0  0  0
 10 11  1  0  0  0  0
 10 33  1  0  0  0  0
 10 34  1  0  0  0  0
 11 12  1  0  0  0  0
 11 35  1  0  0  0  0
 11 36  1  0  0  0  0
 12 13  2  0  0  0  0
 12 37  1  0  0  0  0
M  END
$$$$
