
 OpenBabel06052523303D

 35 35  0  0  1  0  0  0  0  0999 V2000
    1.6343   -2.5584   -0.5247 C   0  0  0  0  0  0  0  0  0  0  0  0
    2.1339   -1.1153   -0.4578 C   0  0  2  0  0  0  0  0  0  0  0  0
    1.0618   -0.1240    0.0326 C   0  0  0  0  0  0  0  0  0  0  0  0
    0.5304   -0.4368    1.4117 C   0  0  0  0  0  0  0  0  0  0  0  0
    1.3873   -0.4903    2.5129 C   0  0  0  0  0  0  0  0  0  0  0  0
    0.9122   -0.8775    3.7701 C   0  0  0  0  0  0  0  0  0  0  0  0
   -0.4354   -1.2121    3.9755 C   0  0  0  0  0  0  0  0  0  0  0  0
   -1.3010   -1.0807    2.8740 C   0  0  0  0  0  0  0  0  0  0  0  0
   -0.8270   -0.6994    1.6122 C   0  0  0  0  0  0  0  0  0  0  0  0
   -0.9600   -1.7298    5.3268 C   0  0  0  0  0  0  0  0  0  0  0  0
    0.1403   -1.8434    6.4074 C   0  0  0  0  0  0  0  0  0  0  0  0
   -2.0517   -0.7891    5.8761 C   0  0  0  0  0  0  0  0  0  0  0  0
   -1.5607   -3.1419    5.1462 C   0  0  0  0  0  0  0  0  0  0  0  0
    2.6356   -0.7243   -1.8334 C   0  0  0  0  0  0  0  0  0  0  0  0
    2.2675    0.2642   -2.4558 O   0  0  0  0  0  0  0  0  0  0  0  0
    2.4000   -3.2173   -0.9498 H   0  0  0  0  0  0  0  0  0  0  0  0
    0.7436   -2.6408   -1.1569 H   0  0  0  0  0  0  0  0  0  0  0  0
    1.3883   -2.9443    0.4694 H   0  0  0  0  0  0  0  0  0  0  0  0
    3.0080   -1.0782    0.2030 H   0  0  0  0  0  0  0  0  0  0  0  0
    1.4760    0.8929    0.0522 H   0  0  0  0  0  0  0  0  0  0  0  0
    0.2334   -0.0933   -0.6878 H   0  0  0  0  0  0  0  0  0  0  0  0
    2.4427   -0.2517    2.4032 H   0  0  0  0  0  0  0  0  0  0  0  0
    1.6381   -0.9240    4.5771 H   0  0  0  0  0  0  0  0  0  0  0  0
   -2.3631   -1.2937    2.9765 H   0  0  0  0  0  0  0  0  0  0  0  0
   -1.5296   -0.6298    0.7843 H   0  0  0  0  0  0  0  0  0  0  0  0
    0.5880   -0.8676    6.6293 H   0  0  0  0  0  0  0  0  0  0  0  0
    0.9419   -2.5232    6.0939 H   0  0  0  0  0  0  0  0  0  0  0  0
   -0.2638   -2.2353    7.3476 H   0  0  0  0  0  0  0  0  0  0  0  0
   -1.6644    0.2258    6.0207 H   0  0  0  0  0  0  0  0  0  0  0  0
   -2.4239   -1.1446    6.8446 H   0  0  0  0  0  0  0  0  0  0  0  0
   -2.9156   -0.7218    5.2064 H   0  0  0  0  0  0  0  0  0  0  0  0
   -0.8128   -3.8441    4.7599 H   0  0  0  0  0  0  0  0  0  0  0  0
   -2.4080   -3.1475    4.4517 H   0  0  0  0  0  0  0  0  0  0  0  0
   -1.9270   -3.5387    6.1009 H   0  0  0  0  0  0  0  0  0  0  0  0
    3.4162   -1.3848   -2.2544 H   0  0  0  0  0  0  0  0  0  0  0  0
  1 16  1  0  0  0  0
  1 17  1  0  0  0  0
  1 18  1  0  0  0  0
  2 14  1  0  0  0  0
  2  3  1  0  0  0  0
  2  1  1  0  0  0  0
  2 19  1  1  0  0  0
  3  4  1  0  0  0  0
  3 20  1  0  0  0  0
  3 21  1  0  0  0  0
  4  5  2  0  0  0  0
  4  9  1  0  0  0  0
  5  6  1  0  0  0  0
  5 22  1  0  0  0  0
  6  7  2  0  0  0  0
  6 23  1  0  0  0  0
  7  8  1  0  0  0  0
  7 10  1  0  0  0  0
  8  9  2  0  0  0  0
  8 24  1  0  0  0  0
  9 25  1  0  0  0  0
 10 11  1  0  0  0  0
 10 12  1  0  0  0  0
 10 13  1  0  0  0  0
 11 26  1  0  0  0  0
 11 27  1  0  0  0  0
 11 28  1  0  0  0  0
 12 29  1  0  0  0  0
 12 30  1  0  0  0  0
 12 31  1  0  0  0  0
 13 32  1  0  0  0  0
 13 33  1  0  0  0  0
 13 34  1  0  0  0  0
 14 15  2  0  0  0  0
 14 35  1  0  0  0  0
M  END
$$$$
