
 OpenBabel11102422323D

 26 26  0  0  0  0  0  0  0  0999 V2000
    1.2666    0.2108    1.1798 C   0  0  0  0  0  0  0  0  0  0  0  0
    2.5810    0.2470    0.4635 C   0  0  0  0  0  0  0  0  0  0  0  0
    3.1183    1.3597   -0.0739 C   0  0  0  0  0  0  0  0  0  0  0  0
    4.3737    1.2254   -0.8687 C   0  0  0  0  0  0  0  0  0  0  0  0
    4.8160    2.1300   -1.5677 O   0  0  0  0  0  0  0  0  0  0  0  0
    5.0396   -0.0918   -0.8322 C   0  0  0  0  0  0  0  0  0  0  0  0
    4.4135   -1.0967   -0.2179 C   0  0  0  0  0  0  0  0  0  0  0  0
    3.1919   -0.9985    0.3967 O   0  0  0  0  0  0  0  0  0  0  0  0
    2.4773    2.6093    0.0091 O   0  0  0  0  0  0  0  0  0  0  0  0
    3.2206    3.5832    0.6357 C   0  0  0  0  0  0  0  0  0  0  0  0
    4.3481    3.4549    1.0962 O   0  0  0  0  0  0  0  0  0  0  0  0
    2.3563    4.8223    0.8242 C   0  0  0  0  0  0  0  0  0  0  0  0
    1.7301    4.7635    2.2146 C   0  0  0  0  0  0  0  0  0  0  0  0
    3.1621    6.1053    0.6477 C   0  0  0  0  0  0  0  0  0  0  0  0
    0.7915    1.1934    1.2483 H   0  0  0  0  0  0  0  0  0  0  0  0
    1.3984   -0.1717    2.1968 H   0  0  0  0  0  0  0  0  0  0  0  0
    0.5769   -0.4555    0.6501 H   0  0  0  0  0  0  0  0  0  0  0  0
    5.9934   -0.1941   -1.3289 H   0  0  0  0  0  0  0  0  0  0  0  0
    4.8074   -2.1006   -0.1511 H   0  0  0  0  0  0  0  0  0  0  0  0
    1.5630    4.8202    0.0666 H   0  0  0  0  0  0  0  0  0  0  0  0
    2.4984    4.6885    2.9929 H   0  0  0  0  0  0  0  0  0  0  0  0
    1.0810    3.8866    2.3106 H   0  0  0  0  0  0  0  0  0  0  0  0
    1.1281    5.6554    2.4157 H   0  0  0  0  0  0  0  0  0  0  0  0
    3.9916    6.1651    1.3604 H   0  0  0  0  0  0  0  0  0  0  0  0
    2.5251    6.9844    0.7998 H   0  0  0  0  0  0  0  0  0  0  0  0
    3.5835    6.1664   -0.3609 H   0  0  0  0  0  0  0  0  0  0  0  0
  1  2  1  0  0  0  0
  1 15  1  0  0  0  0
  1 16  1  0  0  0  0
  1 17  1  0  0  0  0
  2  3  2  0  0  0  0
  2  8  1  0  0  0  0
  3  4  1  0  0  0  0
  3  9  1  0  0  0  0
  4  5  2  0  0  0  0
  4  6  1  0  0  0  0
  6  7  2  0  0  0  0
  6 18  1  0  0  0  0
  7  8  1  0  0  0  0
  7 19  1  0  0  0  0
  9 10  1  0  0  0  0
 10 11  2  0  0  0  0
 10 12  1  0  0  0  0
 12 13  1  0  0  0  0
 12 14  1  0  0  0  0
 12 20  1  0  0  0  0
 13 21  1  0  0  0  0
 13 22  1  0  0  0  0
 13 23  1  0  0  0  0
 14 24  1  0  0  0  0
 14 25  1  0  0  0  0
 14 26  1  0  0  0  0
M  END
$$$$
