
 OpenBabel01032514403D

 26 25  0  0  1  0  0  0  0  0999 V2000
    0.8579   -0.1153   -0.0811 C   0  0  0  0  0  0  0  0  0  0  0  0
    2.3772   -0.0778   -0.0484 C   0  0  0  0  0  0  0  0  0  0  0  0
    2.9475   -1.0485    0.9905 C   0  0  0  0  0  0  0  0  0  0  0  0
    4.4794   -1.0448    1.0285 C   0  0  3  0  0  0  0  0  0  0  0  0
    5.0806    0.3120    1.3952 C   0  0  0  0  0  0  0  0  0  0  0  0
    4.9862   -2.0756    2.0213 C   0  0  0  0  0  0  0  0  0  0  0  0
    5.2146   -1.8528    3.2051 O   0  0  0  0  0  0  0  0  0  0  0  0
    5.2206   -3.2552    1.3843 O   0  0  0  0  0  0  0  0  0  0  0  0
    6.0948   -4.1569    2.0764 C   0  0  0  0  0  0  0  0  0  0  0  0
    7.5200   -3.8223    1.6725 C   0  0  0  0  0  0  0  0  0  0  0  0
    0.4792    0.6011   -0.8174 H   0  0  0  0  0  0  0  0  0  0  0  0
    0.4403    0.1507    0.8951 H   0  0  0  0  0  0  0  0  0  0  0  0
    0.4938   -1.1100   -0.3548 H   0  0  0  0  0  0  0  0  0  0  0  0
    2.6873    0.9479    0.1768 H   0  0  0  0  0  0  0  0  0  0  0  0
    2.7668   -0.3251   -1.0428 H   0  0  0  0  0  0  0  0  0  0  0  0
    2.5961   -2.0635    0.7612 H   0  0  0  0  0  0  0  0  0  0  0  0
    2.5487   -0.8045    1.9830 H   0  0  0  0  0  0  0  0  0  0  0  0
    4.8711   -1.3167    0.0393 H   0  0  0  0  0  0  0  0  0  0  0  0
    4.6903    0.6734    2.3532 H   0  0  0  0  0  0  0  0  0  0  0  0
    4.8729    1.0648    0.6313 H   0  0  0  0  0  0  0  0  0  0  0  0
    6.1705    0.2359    1.4917 H   0  0  0  0  0  0  0  0  0  0  0  0
    5.8432   -5.1747    1.7624 H   0  0  0  0  0  0  0  0  0  0  0  0
    5.9646   -4.1088    3.1644 H   0  0  0  0  0  0  0  0  0  0  0  0
    7.6353   -3.9115    0.5867 H   0  0  0  0  0  0  0  0  0  0  0  0
    8.2388   -4.4840    2.1614 H   0  0  0  0  0  0  0  0  0  0  0  0
    7.7639   -2.7849    1.9272 H   0  0  0  0  0  0  0  0  0  0  0  0
  1  2  1  0  0  0  0
  1 11  1  0  0  0  0
  1 12  1  0  0  0  0
  1 13  1  0  0  0  0
  2  3  1  0  0  0  0
  2 14  1  0  0  0  0
  2 15  1  0  0  0  0
  3  4  1  0  0  0  0
  3 16  1  0  0  0  0
  3 17  1  0  0  0  0
  4  5  1  0  0  0  0
  4  6  1  0  0  0  0
  4 18  1  0  0  0  0
  5 19  1  0  0  0  0
  5 20  1  0  0  0  0
  5 21  1  0  0  0  0
  6  7  2  0  0  0  0
  6  8  1  0  0  0  0
  8  9  1  0  0  0  0
  9 10  1  0  0  0  0
  9 22  1  0  0  0  0
  9 23  1  0  0  0  0
 10 24  1  0  0  0  0
 10 25  1  0  0  0  0
 10 26  1  0  0  0  0
M  END
$$$$
