
 OpenBabel01032515003D

 35 34  0  0  0  0  0  0  0  0999 V2000
    0.8926   -0.0538   -0.0454 C   0  0  0  0  0  0  0  0  0  0  0  0
    2.4100   -0.0584   -0.0386 C   0  0  0  0  0  0  0  0  0  0  0  0
    2.9426   -0.1888    1.3837 C   0  0  0  0  0  0  0  0  0  0  0  0
    4.4664   -0.1923    1.3987 C   0  0  0  0  0  0  0  0  0  0  0  0
    4.9819   -0.3252    2.8273 C   0  0  0  0  0  0  0  0  0  0  0  0
    6.5038   -0.3273    2.8498 C   0  0  0  0  0  0  0  0  0  0  0  0
    7.0243   -0.4623    4.2790 C   0  0  0  0  0  0  0  0  0  0  0  0
    8.5477   -0.4610    4.2871 C   0  0  0  0  0  0  0  0  0  0  0  0
    9.1222   -0.5939    5.6952 C   0  0  0  0  0  0  0  0  0  0  0  0
   10.6338   -0.5868    5.6420 C   0  0  0  0  0  0  0  0  0  0  0  0
   11.2903   -0.4874    4.6178 O   0  0  0  0  0  0  0  0  0  0  0  0
   11.1639   -0.7066    6.8897 O   0  0  0  0  0  0  0  0  0  0  0  0
   12.5948   -0.7065    6.8910 C   0  0  0  0  0  0  0  0  0  0  0  0
    0.5177    0.0399   -1.0675 H   0  0  0  0  0  0  0  0  0  0  0  0
    0.5043    0.7847    0.5419 H   0  0  0  0  0  0  0  0  0  0  0  0
    0.4996   -0.9820    0.3818 H   0  0  0  0  0  0  0  0  0  0  0  0
    2.7811    0.8684   -0.4924 H   0  0  0  0  0  0  0  0  0  0  0  0
    2.7764   -0.8905   -0.6518 H   0  0  0  0  0  0  0  0  0  0  0  0
    2.5689   -1.1158    1.8361 H   0  0  0  0  0  0  0  0  0  0  0  0
    2.5714    0.6421    1.9964 H   0  0  0  0  0  0  0  0  0  0  0  0
    4.8451    0.7351    0.9525 H   0  0  0  0  0  0  0  0  0  0  0  0
    4.8428   -1.0230    0.7898 H   0  0  0  0  0  0  0  0  0  0  0  0
    4.6036   -1.2532    3.2730 H   0  0  0  0  0  0  0  0  0  0  0  0
    4.6037    0.5047    3.4366 H   0  0  0  0  0  0  0  0  0  0  0  0
    6.8805    0.6014    2.4021 H   0  0  0  0  0  0  0  0  0  0  0  0
    6.8806   -1.1557    2.2362 H   0  0  0  0  0  0  0  0  0  0  0  0
    6.6481   -1.3923    4.7216 H   0  0  0  0  0  0  0  0  0  0  0  0
    6.6458    0.3669    4.8886 H   0  0  0  0  0  0  0  0  0  0  0  0
    8.9119    0.4665    3.8288 H   0  0  0  0  0  0  0  0  0  0  0  0
    8.9142   -1.2847    3.6625 H   0  0  0  0  0  0  0  0  0  0  0  0
    8.7890   -1.5354    6.1493 H   0  0  0  0  0  0  0  0  0  0  0  0
    8.7867    0.2444    6.3184 H   0  0  0  0  0  0  0  0  0  0  0  0
   12.9394   -0.8055    7.9234 H   0  0  0  0  0  0  0  0  0  0  0  0
   12.9788    0.2360    6.4870 H   0  0  0  0  0  0  0  0  0  0  0  0
   12.9788   -1.5553    6.3154 H   0  0  0  0  0  0  0  0  0  0  0  0
  1  2  1  0  0  0  0
  1 14  1  0  0  0  0
  1 15  1  0  0  0  0
  1 16  1  0  0  0  0
  2  3  1  0  0  0  0
  2 17  1  0  0  0  0
  2 18  1  0  0  0  0
  3  4  1  0  0  0  0
  3 19  1  0  0  0  0
  3 20  1  0  0  0  0
  4  5  1  0  0  0  0
  4 21  1  0  0  0  0
  4 22  1  0  0  0  0
  5  6  1  0  0  0  0
  5 23  1  0  0  0  0
  5 24  1  0  0  0  0
  6  7  1  0  0  0  0
  6 25  1  0  0  0  0
  6 26  1  0  0  0  0
  7  8  1  0  0  0  0
  7 27  1  0  0  0  0
  7 28  1  0  0  0  0
  8  9  1  0  0  0  0
  8 29  1  0  0  0  0
  8 30  1  0  0  0  0
  9 10  1  0  0  0  0
  9 31  1  0  0  0  0
  9 32  1  0  0  0  0
 10 11  2  0  0  0  0
 10 12  1  0  0  0  0
 12 13  1  0  0  0  0
 13 33  1  0  0  0  0
 13 34  1  0  0  0  0
 13 35  1  0  0  0  0
M  END
$$$$
