
 OpenBabel10062412143D

 17 17  0  0  0  0  0  0  0  0999 V2000
    1.0646   -0.7192   -0.4141 C   0  0  0  0  0  0  0  0  0  0  0  0
    2.4928   -0.7392   -0.4503 O   0  0  0  0  0  0  0  0  0  0  0  0
    3.0332    0.1503   -1.3193 C   0  0  0  0  0  0  0  0  0  0  0  0
    2.4131    0.9141   -2.0417 O   0  0  0  0  0  0  0  0  0  0  0  0
    4.5087    0.0869   -1.2783 C   0  0  0  0  0  0  0  0  0  0  0  0
    5.2295    0.9822   -2.0579 C   0  0  0  0  0  0  0  0  0  0  0  0
    6.5851    1.0233   -2.1055 N   0  0  0  0  0  0  0  0  0  0  0  0
    7.2470    0.1274   -1.3419 C   0  0  0  0  0  0  0  0  0  0  0  0
    6.6192   -0.8071   -0.5333 C   0  0  0  0  0  0  0  0  0  0  0  0
    5.2258   -0.8258   -0.4997 C   0  0  0  0  0  0  0  0  0  0  0  0
    0.7390   -1.3363    0.4278 H   0  0  0  0  0  0  0  0  0  0  0  0
    0.6609   -1.1452   -1.3375 H   0  0  0  0  0  0  0  0  0  0  0  0
    0.6895    0.2975   -0.2593 H   0  0  0  0  0  0  0  0  0  0  0  0
    4.7304    1.7169   -2.6858 H   0  0  0  0  0  0  0  0  0  0  0  0
    8.3306    0.1807   -1.3999 H   0  0  0  0  0  0  0  0  0  0  0  0
    7.2017   -1.5043    0.0594 H   0  0  0  0  0  0  0  0  0  0  0  0
    4.7162   -1.5510    0.1292 H   0  0  0  0  0  0  0  0  0  0  0  0
  1  2  1  0  0  0  0
  1 11  1  0  0  0  0
  1 12  1  0  0  0  0
  1 13  1  0  0  0  0
  2  3  1  0  0  0  0
  3  4  2  0  0  0  0
  3  5  1  0  0  0  0
  5  6  2  0  0  0  0
  5 10  1  0  0  0  0
  6  7  1  0  0  0  0
  6 14  1  0  0  0  0
  7  8  2  0  0  0  0
  8  9  1  0  0  0  0
  8 15  1  0  0  0  0
  9 10  2  0  0  0  0
  9 16  1  0  0  0  0
 10 17  1  0  0  0  0
M  END
$$$$
