
 OpenBabel10252419423D

 13 12  0  0  0  0  0  0  0  0999 V2000
    1.0737   -0.0587    0.0128 C   0  0  0  0  0  0  0  0  0  0  0  0
    2.5903   -0.0740    0.0885 C   0  0  0  0  0  0  0  0  0  0  0  0
    3.0934   -0.3582    1.4912 C   0  0  0  0  0  0  0  0  0  0  0  0
    2.3358   -0.5524    2.4421 O   0  0  0  0  0  0  0  0  0  0  0  0
    4.5859   -0.3959    1.6865 C   0  0  0  0  0  0  0  0  0  0  0  0
    0.7422    0.1484   -1.0091 H   0  0  0  0  0  0  0  0  0  0  0  0
    0.6560    0.7106    0.6710 H   0  0  0  0  0  0  0  0  0  0  0  0
    0.6560   -1.0235    0.3196 H   0  0  0  0  0  0  0  0  0  0  0  0
    2.9831    0.8982   -0.2270 H   0  0  0  0  0  0  0  0  0  0  0  0
    2.9831   -0.8468   -0.5806 H   0  0  0  0  0  0  0  0  0  0  0  0
    5.1039   -0.2036    0.7434 H   0  0  0  0  0  0  0  0  0  0  0  0
    4.8750   -1.3847    2.0512 H   0  0  0  0  0  0  0  0  0  0  0  0
    4.8726    0.3730    2.4082 H   0  0  0  0  0  0  0  0  0  0  0  0
  1  2  1  0  0  0  0
  1  6  1  0  0  0  0
  1  7  1  0  0  0  0
  1  8  1  0  0  0  0
  2  3  1  0  0  0  0
  2  9  1  0  0  0  0
  2 10  1  0  0  0  0
  3  4  2  0  0  0  0
  3  5  1  0  0  0  0
  5 11  1  0  0  0  0
  5 12  1  0  0  0  0
  5 13  1  0  0  0  0
M  END
$$$$
