
 OpenBabel12042409253D

 14 13  0  0  0  0  0  0  0  0999 V2000
    1.0014   -0.0334   -0.1007 C   0  0  0  0  0  0  0  0  0  0  0  0
    2.7951    0.1021    0.0951 S   0  0  0  0  0  0  0  0  0  0  0  0
    3.3072   -0.8813   -1.3525 C   0  0  0  0  0  0  0  0  0  0  0  0
    4.8268   -0.9271   -1.4195 C   0  0  0  0  0  0  0  0  0  0  0  0
    5.3007   -1.7294   -2.6029 C   0  0  0  0  0  0  0  0  0  0  0  0
    4.5584   -2.2763   -3.4125 O   0  0  0  0  0  0  0  0  0  0  0  0
    0.5123    0.5160    0.7080 H   0  0  0  0  0  0  0  0  0  0  0  0
    0.6876   -1.0793   -0.0477 H   0  0  0  0  0  0  0  0  0  0  0  0
    0.6855    0.3995   -1.0536 H   0  0  0  0  0  0  0  0  0  0  0  0
    2.8979   -0.4248   -2.2600 H   0  0  0  0  0  0  0  0  0  0  0  0
    2.8980   -1.8932   -1.2623 H   0  0  0  0  0  0  0  0  0  0  0  0
    5.2487   -1.3934   -0.5218 H   0  0  0  0  0  0  0  0  0  0  0  0
    5.2491    0.0792   -1.5204 H   0  0  0  0  0  0  0  0  0  0  0  0
    6.3969   -1.8031   -2.7091 H   0  0  0  0  0  0  0  0  0  0  0  0
  1  2  1  0  0  0  0
  1  7  1  0  0  0  0
  1  8  1  0  0  0  0
  1  9  1  0  0  0  0
  2  3  1  0  0  0  0
  3  4  1  0  0  0  0
  3 10  1  0  0  0  0
  3 11  1  0  0  0  0
  4  5  1  0  0  0  0
  4 12  1  0  0  0  0
  4 13  1  0  0  0  0
  5  6  2  0  0  0  0
  5 14  1  0  0  0  0
M  END
$$$$
