
 OpenBabel01032515013D

 29 28  0  0  0  0  0  0  0  0999 V2000
    0.9382    0.0349   -0.1020 C   0  0  0  0  0  0  0  0  0  0  0  0
    2.4577    0.0482   -0.0835 C   0  0  0  0  0  0  0  0  0  0  0  0
    2.9882    0.9014    1.0677 C   0  0  0  0  0  0  0  0  0  0  0  0
    4.5149    0.9157    1.0896 C   0  0  0  0  0  0  0  0  0  0  0  0
    5.0489    1.7684    2.2425 C   0  0  0  0  0  0  0  0  0  0  0  0
    6.5750    1.7683    2.2423 C   0  0  0  0  0  0  0  0  0  0  0  0
    7.1593    2.6070    3.3771 C   0  0  0  0  0  0  0  0  0  0  0  0
    8.6693    2.5751    3.3350 C   0  0  0  0  0  0  0  0  0  0  0  0
    9.3392    1.9715    2.5071 O   0  0  0  0  0  0  0  0  0  0  0  0
    9.1815    3.3201    4.3543 O   0  0  0  0  0  0  0  0  0  0  0  0
   10.6100    3.3366    4.3758 C   0  0  0  0  0  0  0  0  0  0  0  0
    0.5732   -0.5794   -0.9308 H   0  0  0  0  0  0  0  0  0  0  0  0
    0.5401    1.0470   -0.2268 H   0  0  0  0  0  0  0  0  0  0  0  0
    0.5396   -0.3784    0.8300 H   0  0  0  0  0  0  0  0  0  0  0  0
    2.8274    0.4380   -1.0392 H   0  0  0  0  0  0  0  0  0  0  0  0
    2.8268   -0.9798    0.0120 H   0  0  0  0  0  0  0  0  0  0  0  0
    2.6112    0.5094    2.0200 H   0  0  0  0  0  0  0  0  0  0  0  0
    2.6131    1.9272    0.9682 H   0  0  0  0  0  0  0  0  0  0  0  0
    4.8925    1.3075    0.1368 H   0  0  0  0  0  0  0  0  0  0  0  0
    4.8908   -0.1105    1.1869 H   0  0  0  0  0  0  0  0  0  0  0  0
    4.6780    1.3755    3.1966 H   0  0  0  0  0  0  0  0  0  0  0  0
    4.6777    2.7958    2.1462 H   0  0  0  0  0  0  0  0  0  0  0  0
    6.9388    2.1512    1.2808 H   0  0  0  0  0  0  0  0  0  0  0  0
    6.9399    0.7366    2.3256 H   0  0  0  0  0  0  0  0  0  0  0  0
    6.8299    2.2101    4.3436 H   0  0  0  0  0  0  0  0  0  0  0  0
    6.8297    3.6478    3.2822 H   0  0  0  0  0  0  0  0  0  0  0  0
   10.9331    3.9554    5.2169 H   0  0  0  0  0  0  0  0  0  0  0  0
   11.0025    3.7745    3.4522 H   0  0  0  0  0  0  0  0  0  0  0  0
   11.0014    2.3243    4.5192 H   0  0  0  0  0  0  0  0  0  0  0  0
  1  2  1  0  0  0  0
  1 12  1  0  0  0  0
  1 13  1  0  0  0  0
  1 14  1  0  0  0  0
  2  3  1  0  0  0  0
  2 15  1  0  0  0  0
  2 16  1  0  0  0  0
  3  4  1  0  0  0  0
  3 17  1  0  0  0  0
  3 18  1  0  0  0  0
  4  5  1  0  0  0  0
  4 19  1  0  0  0  0
  4 20  1  0  0  0  0
  5  6  1  0  0  0  0
  5 21  1  0  0  0  0
  5 22  1  0  0  0  0
  6  7  1  0  0  0  0
  6 23  1  0  0  0  0
  6 24  1  0  0  0  0
  7  8  1  0  0  0  0
  7 25  1  0  0  0  0
  7 26  1  0  0  0  0
  8  9  2  0  0  0  0
  8 10  1  0  0  0  0
 10 11  1  0  0  0  0
 11 27  1  0  0  0  0
 11 28  1  0  0  0  0
 11 29  1  0  0  0  0
M  END
$$$$
