
 OpenBabel10142510213D

 19 19  0  0  1  0  0  0  0  0999 V2000
    0.9966    0.0109    0.0256 C   0  0  0  0  0  0  0  0  0  0  0  0
    2.5226   -0.0138    0.1231 C   0  0  3  0  0  0  0  0  0  0  0  0
    3.0109   -1.3159    0.7827 C   0  0  0  0  0  0  0  0  0  0  0  0
    3.4221   -0.8493    2.1466 C   0  0  0  0  0  0  0  0  0  0  0  0
    3.7282   -1.5527    3.0975 O   0  0  0  0  0  0  0  0  0  0  0  0
    3.5003    0.6217    2.1939 C   0  0  0  0  0  0  0  0  0  0  0  0
    3.0387    1.0823    1.0281 C   0  0  0  0  0  0  0  0  0  0  0  0
    3.0042    2.5091    0.5990 C   0  0  0  0  0  0  0  0  0  0  0  0
    3.9953    1.3186    3.2508 O   0  0  0  0  0  0  0  0  0  0  0  0
    0.6387   -0.8090   -0.6063 H   0  0  0  0  0  0  0  0  0  0  0  0
    0.6397    0.9489   -0.4120 H   0  0  0  0  0  0  0  0  0  0  0  0
    0.5281   -0.0983    1.0111 H   0  0  0  0  0  0  0  0  0  0  0  0
    2.9524    0.0756   -0.8815 H   0  0  0  0  0  0  0  0  0  0  0  0
    3.8941   -1.7078    0.2669 H   0  0  0  0  0  0  0  0  0  0  0  0
    2.2377   -2.0855    0.8457 H   0  0  0  0  0  0  0  0  0  0  0  0
    3.4312    3.1739    1.3567 H   0  0  0  0  0  0  0  0  0  0  0  0
    1.9779    2.8353    0.4083 H   0  0  0  0  0  0  0  0  0  0  0  0
    3.5857    2.6381   -0.3199 H   0  0  0  0  0  0  0  0  0  0  0  0
    4.2120    0.6419    3.9245 H   0  0  0  0  0  0  0  0  0  0  0  0
  1  2  1  0  0  0  0
  1 10  1  0  0  0  0
  1 11  1  0  0  0  0
  1 12  1  0  0  0  0
  2  3  1  0  0  0  0
  2  7  1  0  0  0  0
  2 13  1  0  0  0  0
  3  4  1  0  0  0  0
  3 14  1  0  0  0  0
  3 15  1  0  0  0  0
  4  5  2  0  0  0  0
  4  6  1  0  0  0  0
  6  7  2  0  0  0  0
  6  9  1  0  0  0  0
  7  8  1  0  0  0  0
  8 16  1  0  0  0  0
  8 17  1  0  0  0  0
  8 18  1  0  0  0  0
  9 19  1  0  0  0  0
M  END
$$$$
