
 OpenBabel10142516253D

 32 32  0  0  1  0  0  0  0  0999 V2000
    3.4128   -1.6581   -0.5264 O   0  0  0  0  0  0  0  0  0  0  0  0
    4.1170   -0.9370   -1.2229 C   0  0  0  0  0  0  0  0  0  0  0  0
    4.8174    0.3099   -0.7340 C   0  0  0  0  0  0  0  0  0  0  0  0
    4.6290    0.5987    0.7639 C   0  0  1  0  0  0  0  0  0  0  0  0
    5.2460   -0.5067    1.6370 C   0  0  0  0  0  0  0  0  0  0  0  0
    5.8270    0.1489    2.8781 C   0  0  0  0  0  0  0  0  0  0  0  0
    6.0903    1.5532    2.4267 C   0  0  0  0  0  0  0  0  0  0  0  0
    6.8161    2.3326    3.0338 O   0  0  0  0  0  0  0  0  0  0  0  0
    5.3534    1.9057    1.1588 C   0  0  2  0  0  0  0  0  0  0  0  0
    4.4401    3.1274    1.3432 C   0  0  0  0  0  0  0  0  0  0  0  0
    3.3416    3.0048    2.3716 C   0  0  0  0  0  0  0  0  0  0  0  0
    2.4336    3.9570    2.6438 C   0  0  0  0  0  0  0  0  0  0  0  0
    2.3368    5.3118    1.9994 C   0  0  0  0  0  0  0  0  0  0  0  0
    0.9944    5.5103    1.3123 C   0  0  0  0  0  0  0  0  0  0  0  0
    4.2842   -1.1763   -2.2875 H   0  0  0  0  0  0  0  0  0  0  0  0
    4.4349    1.1460   -1.3300 H   0  0  0  0  0  0  0  0  0  0  0  0
    5.8823    0.1939   -0.9703 H   0  0  0  0  0  0  0  0  0  0  0  0
    3.5557    0.6626    0.9799 H   0  0  0  0  0  0  0  0  0  0  0  0
    6.0355   -1.0446    1.0995 H   0  0  0  0  0  0  0  0  0  0  0  0
    4.4919   -1.2500    1.9211 H   0  0  0  0  0  0  0  0  0  0  0  0
    6.7546   -0.3400    3.1849 H   0  0  0  0  0  0  0  0  0  0  0  0
    5.1107    0.1676    3.7031 H   0  0  0  0  0  0  0  0  0  0  0  0
    6.1199    2.1510    0.4101 H   0  0  0  0  0  0  0  0  0  0  0  0
    5.0693    3.9825    1.6232 H   0  0  0  0  0  0  0  0  0  0  0  0
    3.9833    3.3586    0.3731 H   0  0  0  0  0  0  0  0  0  0  0  0
    3.2865    2.0873    2.9545 H   0  0  0  0  0  0  0  0  0  0  0  0
    1.6999    3.7561    3.4237 H   0  0  0  0  0  0  0  0  0  0  0  0
    3.1357    5.4695    1.2683 H   0  0  0  0  0  0  0  0  0  0  0  0
    2.4628    6.0773    2.7737 H   0  0  0  0  0  0  0  0  0  0  0  0
    0.8266    4.7512    0.5407 H   0  0  0  0  0  0  0  0  0  0  0  0
    0.9584    6.4942    0.8330 H   0  0  0  0  0  0  0  0  0  0  0  0
    0.1696    5.4567    2.0306 H   0  0  0  0  0  0  0  0  0  0  0  0
  1  2  2  0  0  0  0
  2  3  1  0  0  0  0
  2 15  1  0  0  0  0
  3 16  1  0  0  0  0
  3 17  1  0  0  0  0
  4  5  1  0  0  0  0
  4  9  1  0  0  0  0
  4  3  1  0  0  0  0
  4 18  1  1  0  0  0
  5  6  1  0  0  0  0
  5 19  1  0  0  0  0
  5 20  1  0  0  0  0
  6  7  1  0  0  0  0
  6 21  1  0  0  0  0
  6 22  1  0  0  0  0
  7  8  2  0  0  0  0
  7  9  1  0  0  0  0
  9 10  1  0  0  0  0
  9 23  1  6  0  0  0
 10 11  1  0  0  0  0
 10 24  1  0  0  0  0
 10 25  1  0  0  0  0
 11 12  2  0  0  0  0
 11 26  1  0  0  0  0
 12 13  1  0  0  0  0
 12 27  1  0  0  0  0
 13 14  1  0  0  0  0
 13 28  1  0  0  0  0
 13 29  1  0  0  0  0
 14 30  1  0  0  0  0
 14 31  1  0  0  0  0
 14 32  1  0  0  0  0
M  END
$$$$
