
 OpenBabel12292422323D

 36 36  0  0  1  0  0  0  0  0999 V2000
    0.5573    0.1084   -0.0936 C   0  0  0  0  0  0  0  0  0  0  0  0
    2.0152    0.4077    0.2615 C   0  0  0  0  0  0  0  0  0  0  0  0
    2.5075    1.6813   -0.4180 C   0  0  0  0  0  0  0  0  0  0  0  0
    1.5967    2.8721   -0.1340 C   0  0  0  0  0  0  0  0  0  0  0  0
    0.1374    2.5688   -0.4704 C   0  0  0  0  0  0  0  0  0  0  0  0
   -0.3891    1.2886    0.1984 C   0  0  0  0  0  0  0  0  0  0  0  0
   -0.6025    1.4571    1.6891 C   0  0  0  0  0  0  0  0  0  0  0  0
   -1.7303    1.8613    2.3125 C   0  0  0  0  0  0  0  0  0  0  0  0
   -2.9586    2.3383    1.5891 C   0  0  0  0  0  0  0  0  0  0  0  0
   -1.7814    1.9124    3.8312 C   0  0  0  0  0  0  0  0  0  0  0  0
   -2.8806    1.0542    4.4806 C   0  0  1  0  0  0  0  0  0  0  0  0
   -2.7690   -0.4320    4.1456 C   0  0  0  0  0  0  0  0  0  0  0  0
   -2.8414    1.1971    5.9906 C   0  0  0  0  0  0  0  0  0  0  0  0
   -2.0605    1.9162    6.6083 O   0  0  0  0  0  0  0  0  0  0  0  0
    0.2257   -0.7902    0.4419 H   0  0  0  0  0  0  0  0  0  0  0  0
    0.5021   -0.1298   -1.1640 H   0  0  0  0  0  0  0  0  0  0  0  0
    2.6461   -0.4364   -0.0388 H   0  0  0  0  0  0  0  0  0  0  0  0
    2.1305    0.5068    1.3471 H   0  0  0  0  0  0  0  0  0  0  0  0
    2.5605    1.5142   -1.5009 H   0  0  0  0  0  0  0  0  0  0  0  0
    3.5253    1.9092   -0.0814 H   0  0  0  0  0  0  0  0  0  0  0  0
    1.9324    3.7334   -0.7242 H   0  0  0  0  0  0  0  0  0  0  0  0
    1.6825    3.1597    0.9203 H   0  0  0  0  0  0  0  0  0  0  0  0
    0.0475    2.4550   -1.5582 H   0  0  0  0  0  0  0  0  0  0  0  0
   -0.4842    3.4307   -0.1996 H   0  0  0  0  0  0  0  0  0  0  0  0
   -1.3545    1.0377   -0.2601 H   0  0  0  0  0  0  0  0  0  0  0  0
    0.2473    1.1929    2.3176 H   0  0  0  0  0  0  0  0  0  0  0  0
   -2.7488    2.6435    0.5611 H   0  0  0  0  0  0  0  0  0  0  0  0
   -3.3797    3.2154    2.0926 H   0  0  0  0  0  0  0  0  0  0  0  0
   -3.7198    1.5523    1.5659 H   0  0  0  0  0  0  0  0  0  0  0  0
   -1.9190    2.9614    4.1279 H   0  0  0  0  0  0  0  0  0  0  0  0
   -0.8094    1.6186    4.2520 H   0  0  0  0  0  0  0  0  0  0  0  0
   -3.8662    1.4167    4.1631 H   0  0  0  0  0  0  0  0  0  0  0  0
   -1.8223   -0.8504    4.5058 H   0  0  0  0  0  0  0  0  0  0  0  0
   -2.8385   -0.6107    3.0689 H   0  0  0  0  0  0  0  0  0  0  0  0
   -3.5772   -0.9969    4.6249 H   0  0  0  0  0  0  0  0  0  0  0  0
   -3.6099    0.6229    6.5391 H   0  0  0  0  0  0  0  0  0  0  0  0
  1  2  1  0  0  0  0
  1  6  1  0  0  0  0
  1 15  1  0  0  0  0
  1 16  1  0  0  0  0
  2  3  1  0  0  0  0
  2 17  1  0  0  0  0
  2 18  1  0  0  0  0
  3  4  1  0  0  0  0
  3 19  1  0  0  0  0
  3 20  1  0  0  0  0
  4  5  1  0  0  0  0
  4 21  1  0  0  0  0
  4 22  1  0  0  0  0
  5  6  1  0  0  0  0
  5 23  1  0  0  0  0
  5 24  1  0  0  0  0
  6  7  1  0  0  0  0
  6 25  1  0  0  0  0
  7  8  2  0  0  0  0
  7 26  1  0  0  0  0
  8  9  1  0  0  0  0
  8 10  1  0  0  0  0
  9 27  1  0  0  0  0
  9 28  1  0  0  0  0
  9 29  1  0  0  0  0
 10 11  1  0  0  0  0
 10 30  1  0  0  0  0
 10 31  1  0  0  0  0
 11 12  1  0  0  0  0
 11 13  1  0  0  0  0
 11 32  1  6  0  0  0
 12 33  1  0  0  0  0
 12 34  1  0  0  0  0
 12 35  1  0  0  0  0
 13 14  2  0  0  0  0
 13 36  1  0  0  0  0
M  END
$$$$
