
 OpenBabel01032513173D

 39 39  0  0  0  0  0  0  0  0999 V2000
    2.5551    1.1635   -0.2103 C   0  0  0  0  0  0  0  0  0  0  0  0
    1.2777    0.3376   -0.1195 C   0  0  0  0  0  0  0  0  0  0  0  0
    1.3260   -1.0782   -0.0502 C   0  0  0  0  0  0  0  0  0  0  0  0
    0.1130   -1.7896    0.0437 C   0  0  0  0  0  0  0  0  0  0  0  0
   -1.1321   -1.0592   -0.0014 C   0  0  0  0  0  0  0  0  0  0  0  0
   -1.2632    0.3660   -0.0094 C   0  0  0  0  0  0  0  0  0  0  0  0
    0.0064    1.0160   -0.0476 C   0  0  0  0  0  0  0  0  0  0  0  0
    0.1060    2.4677    0.0130 N   0  3  0  0  0  0  0  0  0  0  0  0
    0.3535    2.9666    1.1224 O   0  0  0  0  0  0  0  0  0  0  0  0
   -0.0107    3.0743   -1.0576 O   0  5  0  0  0  0  0  0  0  0  0  0
   -2.6592    1.1158    0.0050 C   0  0  0  0  0  0  0  0  0  0  0  0
   -3.7613    0.3992    0.8363 C   0  0  0  0  0  0  0  0  0  0  0  0
   -2.6612    2.5459    0.6164 C   0  0  0  0  0  0  0  0  0  0  0  0
   -3.2015    1.2678   -1.4375 C   0  0  0  0  0  0  0  0  0  0  0  0
   -2.3135   -1.9035   -0.1258 N   0  3  0  0  0  0  0  0  0  0  0  0
   -2.7695   -2.3881    0.9181 O   0  0  0  0  0  0  0  0  0  0  0  0
   -2.7245   -2.1252   -1.2720 O   0  5  0  0  0  0  0  0  0  0  0  0
    0.0776   -3.2985    0.1898 C   0  0  0  0  0  0  0  0  0  0  0  0
    2.6722   -1.7660    0.0262 C   0  0  0  0  0  0  0  0  0  0  0  0
    3.5597   -1.2565    0.7100 O   0  0  0  0  0  0  0  0  0  0  0  0
    2.9535   -3.0625   -0.7003 C   0  0  0  0  0  0  0  0  0  0  0  0
    3.3726    0.6273   -0.6985 H   0  0  0  0  0  0  0  0  0  0  0  0
    2.8688    1.4775    0.7908 H   0  0  0  0  0  0  0  0  0  0  0  0
    2.4196    2.0532   -0.8340 H   0  0  0  0  0  0  0  0  0  0  0  0
   -3.3807    0.0835    1.8132 H   0  0  0  0  0  0  0  0  0  0  0  0
   -4.1980   -0.4541    0.3130 H   0  0  0  0  0  0  0  0  0  0  0  0
   -4.6260    1.0492    1.0208 H   0  0  0  0  0  0  0  0  0  0  0  0
   -2.1521    2.5710    1.5841 H   0  0  0  0  0  0  0  0  0  0  0  0
   -3.6812    2.9137    0.7894 H   0  0  0  0  0  0  0  0  0  0  0  0
   -2.2313    3.2923   -0.0558 H   0  0  0  0  0  0  0  0  0  0  0  0
   -3.3937    0.3035   -1.9160 H   0  0  0  0  0  0  0  0  0  0  0  0
   -2.5090    1.8250   -2.0772 H   0  0  0  0  0  0  0  0  0  0  0  0
   -4.1548    1.8143   -1.4367 H   0  0  0  0  0  0  0  0  0  0  0  0
    0.9713   -3.6832    0.6833 H   0  0  0  0  0  0  0  0  0  0  0  0
   -0.0452   -3.7695   -0.7903 H   0  0  0  0  0  0  0  0  0  0  0  0
   -0.7284   -3.6367    0.8447 H   0  0  0  0  0  0  0  0  0  0  0  0
    2.1236   -3.4083   -1.3150 H   0  0  0  0  0  0  0  0  0  0  0  0
    3.1948   -3.8291    0.0454 H   0  0  0  0  0  0  0  0  0  0  0  0
    3.8134   -2.9340   -1.3627 H   0  0  0  0  0  0  0  0  0  0  0  0
  1  2  1  0  0  0  0
  1 22  1  0  0  0  0
  1 23  1  0  0  0  0
  1 24  1  0  0  0  0
  2  3  2  0  0  0  0
  2  7  1  0  0  0  0
  3  4  1  0  0  0  0
  3 19  1  0  0  0  0
  4  5  2  0  0  0  0
  4 18  1  0  0  0  0
  5  6  1  0  0  0  0
  5 15  1  0  0  0  0
  6  7  2  0  0  0  0
  6 11  1  0  0  0  0
  7  8  1  0  0  0  0
  8  9  2  0  0  0  0
  8 10  1  0  0  0  0
 11 12  1  0  0  0  0
 11 13  1  0  0  0  0
 11 14  1  0  0  0  0
 12 25  1  0  0  0  0
 12 26  1  0  0  0  0
 12 27  1  0  0  0  0
 13 28  1  0  0  0  0
 13 29  1  0  0  0  0
 13 30  1  0  0  0  0
 14 31  1  0  0  0  0
 14 32  1  0  0  0  0
 14 33  1  0  0  0  0
 15 16  2  0  0  0  0
 15 17  1  0  0  0  0
 18 34  1  0  0  0  0
 18 35  1  0  0  0  0
 18 36  1  0  0  0  0
 19 20  2  0  0  0  0
 19 21  1  0  0  0  0
 21 37  1  0  0  0  0
 21 38  1  0  0  0  0
 21 39  1  0  0  0  0
M  CHG  4   8   1  10  -1  15   1  17  -1
M  END
$$$$
