
 OpenBabel01032513023D

 35 35  0  0  0  0  0  0  0  0999 V2000
    2.6124   -0.1818   -0.0229 C   0  0  0  0  0  0  0  0  0  0  0  0
    1.1052   -0.1226    0.0567 C   0  0  0  0  0  0  0  0  0  0  0  0
    0.4059    1.0780    0.1246 C   0  0  0  0  0  0  0  0  0  0  0  0
   -0.9948    1.1209    0.1525 C   0  0  0  0  0  0  0  0  0  0  0  0
   -1.7854   -0.0435    0.0851 C   0  0  0  0  0  0  0  0  0  0  0  0
   -1.1053   -1.3004    0.0651 C   0  0  0  0  0  0  0  0  0  0  0  0
    0.3161   -1.3026    0.0508 C   0  0  0  0  0  0  0  0  0  0  0  0
    1.0444   -2.5475   -0.0786 N   0  3  0  0  0  0  0  0  0  0  0  0
    1.5497   -3.0104    0.9486 O   0  0  0  0  0  0  0  0  0  0  0  0
    1.1402   -3.0275   -1.2189 O   0  5  0  0  0  0  0  0  0  0  0  0
   -1.9234   -2.3915   -0.0501 O   0  0  0  0  0  0  0  0  0  0  0  0
   -1.5630   -3.6404    0.5345 C   0  0  0  0  0  0  0  0  0  0  0  0
   -3.3346    0.1062   -0.0193 C   0  0  0  0  0  0  0  0  0  0  0  0
   -3.7972    1.5856   -0.1674 C   0  0  0  0  0  0  0  0  0  0  0  0
   -3.8757   -0.6411   -1.2604 C   0  0  0  0  0  0  0  0  0  0  0  0
   -4.0310   -0.4289    1.2479 C   0  0  0  0  0  0  0  0  0  0  0  0
    1.0872    2.3635    0.0983 N   0  3  0  0  0  0  0  0  0  0  0  0
    1.8026    2.6419    1.0663 O   0  0  0  0  0  0  0  0  0  0  0  0
    0.8827    3.0848   -0.8849 O   0  5  0  0  0  0  0  0  0  0  0  0
    3.0716    0.7927   -0.1791 H   0  0  0  0  0  0  0  0  0  0  0  0
    2.9251   -0.7968   -0.8780 H   0  0  0  0  0  0  0  0  0  0  0  0
    3.0249   -0.6009    0.8986 H   0  0  0  0  0  0  0  0  0  0  0  0
   -1.4535    2.1116    0.1976 H   0  0  0  0  0  0  0  0  0  0  0  0
   -2.4664   -4.2602    0.5712 H   0  0  0  0  0  0  0  0  0  0  0  0
   -1.1933   -3.5233    1.5574 H   0  0  0  0  0  0  0  0  0  0  0  0
   -0.8550   -4.1854   -0.0935 H   0  0  0  0  0  0  0  0  0  0  0  0
   -3.2983    2.0877   -1.0042 H   0  0  0  0  0  0  0  0  0  0  0  0
   -3.6019    2.1590    0.7471 H   0  0  0  0  0  0  0  0  0  0  0  0
   -4.8751    1.6550   -0.3531 H   0  0  0  0  0  0  0  0  0  0  0  0
   -3.1966   -0.5471   -2.1157 H   0  0  0  0  0  0  0  0  0  0  0  0
   -4.8514   -0.2510   -1.5725 H   0  0  0  0  0  0  0  0  0  0  0  0
   -4.0278   -1.7078   -1.0650 H   0  0  0  0  0  0  0  0  0  0  0  0
   -3.6779    0.0921    2.1461 H   0  0  0  0  0  0  0  0  0  0  0  0
   -3.8624   -1.5001    1.4008 H   0  0  0  0  0  0  0  0  0  0  0  0
   -5.1161   -0.2800    1.1860 H   0  0  0  0  0  0  0  0  0  0  0  0
  1  2  1  0  0  0  0
  1 20  1  0  0  0  0
  1 21  1  0  0  0  0
  1 22  1  0  0  0  0
  2  3  2  0  0  0  0
  2  7  1  0  0  0  0
  3  4  1  0  0  0  0
  3 17  1  0  0  0  0
  4  5  2  0  0  0  0
  4 23  1  0  0  0  0
  5  6  1  0  0  0  0
  5 13  1  0  0  0  0
  6  7  2  0  0  0  0
  6 11  1  0  0  0  0
  7  8  1  0  0  0  0
  8  9  2  0  0  0  0
  8 10  1  0  0  0  0
 11 12  1  0  0  0  0
 12 24  1  0  0  0  0
 12 25  1  0  0  0  0
 12 26  1  0  0  0  0
 13 14  1  0  0  0  0
 13 15  1  0  0  0  0
 13 16  1  0  0  0  0
 14 27  1  0  0  0  0
 14 28  1  0  0  0  0
 14 29  1  0  0  0  0
 15 30  1  0  0  0  0
 15 31  1  0  0  0  0
 15 32  1  0  0  0  0
 16 33  1  0  0  0  0
 16 34  1  0  0  0  0
 16 35  1  0  0  0  0
 17 18  2  0  0  0  0
 17 19  1  0  0  0  0
M  CHG  4   8   1  10  -1  17   1  19  -1
M  END
$$$$
