
 OpenBabel08212513193D

 29 28  0  0  0  0  0  0  0  0999 V2000
    1.0498    0.0090    0.0865 C   0  0  0  0  0  0  0  0  0  0  0  0
    2.5668   -0.0037    0.0898 C   0  0  0  0  0  0  0  0  0  0  0  0
    3.1159   -1.0938    1.0080 C   0  0  0  0  0  0  0  0  0  0  0  0
    4.6400   -1.1168    1.0182 C   0  0  0  0  0  0  0  0  0  0  0  0
    5.1634   -2.2038    1.9477 C   0  0  0  0  0  0  0  0  0  0  0  0
    6.5923   -2.2107    1.9549 O   0  0  0  0  0  0  0  0  0  0  0  0
    7.1430   -1.2535    2.7535 C   0  0  0  0  0  0  0  0  0  0  0  0
    6.5069   -0.4556    3.4345 O   0  0  0  0  0  0  0  0  0  0  0  0
    8.6392   -1.2856    2.6992 C   0  0  0  0  0  0  0  0  0  0  0  0
    9.1606   -1.0556    1.2896 C   0  0  0  0  0  0  0  0  0  0  0  0
    8.7350    0.2945    0.7253 C   0  0  0  0  0  0  0  0  0  0  0  0
    0.6781    0.7966   -0.5758 H   0  0  0  0  0  0  0  0  0  0  0  0
    0.6553    0.1958    1.0907 H   0  0  0  0  0  0  0  0  0  0  0  0
    0.6504   -0.9475   -0.2660 H   0  0  0  0  0  0  0  0  0  0  0  0
    2.9372    0.9770    0.4185 H   0  0  0  0  0  0  0  0  0  0  0  0
    2.9323   -0.1606   -0.9316 H   0  0  0  0  0  0  0  0  0  0  0  0
    2.7389   -2.0704    0.6795 H   0  0  0  0  0  0  0  0  0  0  0  0
    2.7446   -0.9355    2.0285 H   0  0  0  0  0  0  0  0  0  0  0  0
    5.0272   -0.1400    1.3408 H   0  0  0  0  0  0  0  0  0  0  0  0
    5.0368   -1.2738    0.0081 H   0  0  0  0  0  0  0  0  0  0  0  0
    4.8231   -3.1914    1.6046 H   0  0  0  0  0  0  0  0  0  0  0  0
    4.7842   -2.0723    2.9658 H   0  0  0  0  0  0  0  0  0  0  0  0
    8.9748   -2.2595    3.0805 H   0  0  0  0  0  0  0  0  0  0  0  0
    9.0292   -0.5186    3.3814 H   0  0  0  0  0  0  0  0  0  0  0  0
    8.7951   -1.8488    0.6220 H   0  0  0  0  0  0  0  0  0  0  0  0
   10.2530   -1.1159    1.2852 H   0  0  0  0  0  0  0  0  0  0  0  0
    7.6457    0.3805    0.6772 H   0  0  0  0  0  0  0  0  0  0  0  0
    9.1233    0.4157   -0.2880 H   0  0  0  0  0  0  0  0  0  0  0  0
    9.1181    1.1144    1.3411 H   0  0  0  0  0  0  0  0  0  0  0  0
  1  2  1  0  0  0  0
  1 12  1  0  0  0  0
  1 13  1  0  0  0  0
  1 14  1  0  0  0  0
  2  3  1  0  0  0  0
  2 15  1  0  0  0  0
  2 16  1  0  0  0  0
  3  4  1  0  0  0  0
  3 17  1  0  0  0  0
  3 18  1  0  0  0  0
  4  5  1  0  0  0  0
  4 19  1  0  0  0  0
  4 20  1  0  0  0  0
  5  6  1  0  0  0  0
  5 21  1  0  0  0  0
  5 22  1  0  0  0  0
  6  7  1  0  0  0  0
  7  8  2  0  0  0  0
  7  9  1  0  0  0  0
  9 10  1  0  0  0  0
  9 23  1  0  0  0  0
  9 24  1  0  0  0  0
 10 11  1  0  0  0  0
 10 25  1  0  0  0  0
 10 26  1  0  0  0  0
 11 27  1  0  0  0  0
 11 28  1  0  0  0  0
 11 29  1  0  0  0  0
M  END
$$$$
