
 OpenBabel10142402023D

 59 58  0  0  0  0  0  0  0  0999 V2000
    1.0285   -0.0029    0.0784 C   0  0  0  0  0  0  0  0  0  0  0  0
    2.5439   -0.0002    0.0806 C   0  0  0  0  0  0  0  0  0  0  0  0
    3.0713   -0.9843    1.1171 C   0  0  0  0  0  0  0  0  0  0  0  0
    4.5945   -0.9903    1.1256 C   0  0  0  0  0  0  0  0  0  0  0  0
    5.1043   -1.9745    2.1593 C   0  0  0  0  0  0  0  0  0  0  0  0
    6.6238   -1.9786    2.1685 C   0  0  0  0  0  0  0  0  0  0  0  0
    7.1370   -2.9679    3.2039 C   0  0  0  0  0  0  0  0  0  0  0  0
    8.6553   -2.9694    3.2075 C   0  0  0  0  0  0  0  0  0  0  0  0
    9.1671   -3.9551    4.2414 C   0  0  0  0  0  0  0  0  0  0  0  0
   10.6851   -3.9563    4.2463 C   0  0  0  0  0  0  0  0  0  0  0  0
   11.1949   -4.9398    5.2834 C   0  0  0  0  0  0  0  0  0  0  0  0
   12.7120   -4.9411    5.2913 C   0  0  0  0  0  0  0  0  0  0  0  0
   13.2221   -5.9261    6.3282 C   0  0  0  0  0  0  0  0  0  0  0  0
   14.7413   -5.9267    6.3355 C   0  0  0  0  0  0  0  0  0  0  0  0
   15.2556   -6.9104    7.3715 C   0  0  0  0  0  0  0  0  0  0  0  0
   16.7764   -6.9141    7.3806 C   0  0  0  0  0  0  0  0  0  0  0  0
   17.2929   -7.8990    8.4179 C   0  0  0  0  0  0  0  0  0  0  0  0
   18.8155   -7.9117    8.4363 C   0  0  0  0  0  0  0  0  0  0  0  0
   19.3273   -8.8947    9.4716 C   0  0  0  0  0  0  0  0  0  0  0  0
    0.6492    0.7036   -0.6657 H   0  0  0  0  0  0  0  0  0  0  0  0
    0.6326    0.2919    1.0525 H   0  0  0  0  0  0  0  0  0  0  0  0
    0.6366   -0.9918   -0.1684 H   0  0  0  0  0  0  0  0  0  0  0  0
    2.9075    1.0098    0.3008 H   0  0  0  0  0  0  0  0  0  0  0  0
    2.9114   -0.2695   -0.9159 H   0  0  0  0  0  0  0  0  0  0  0  0
    2.6989   -1.9913    0.8954 H   0  0  0  0  0  0  0  0  0  0  0  0
    2.6971   -0.7121    2.1109 H   0  0  0  0  0  0  0  0  0  0  0  0
    4.9668    0.0159    1.3498 H   0  0  0  0  0  0  0  0  0  0  0  0
    4.9686   -1.2624    0.1321 H   0  0  0  0  0  0  0  0  0  0  0  0
    4.7339   -2.9829    1.9362 H   0  0  0  0  0  0  0  0  0  0  0  0
    4.7300   -1.7053    3.1550 H   0  0  0  0  0  0  0  0  0  0  0  0
    7.0004   -0.9741    2.3970 H   0  0  0  0  0  0  0  0  0  0  0  0
    7.0044   -2.2504    1.1763 H   0  0  0  0  0  0  0  0  0  0  0  0
    6.7631   -3.9728    2.9778 H   0  0  0  0  0  0  0  0  0  0  0  0
    6.7614   -2.6959    4.1976 H   0  0  0  0  0  0  0  0  0  0  0  0
    9.0300   -1.9636    3.4335 H   0  0  0  0  0  0  0  0  0  0  0  0
    9.0316   -3.2410    2.2141 H   0  0  0  0  0  0  0  0  0  0  0  0
    8.7937   -4.9615    4.0164 H   0  0  0  0  0  0  0  0  0  0  0  0
    8.7907   -3.6835    5.2356 H   0  0  0  0  0  0  0  0  0  0  0  0
   11.0588   -2.9508    4.4684 H   0  0  0  0  0  0  0  0  0  0  0  0
   11.0618   -4.2301    3.2538 H   0  0  0  0  0  0  0  0  0  0  0  0
   10.8207   -5.9462    5.0595 H   0  0  0  0  0  0  0  0  0  0  0  0
   10.8161   -4.6659    6.2762 H   0  0  0  0  0  0  0  0  0  0  0  0
   13.0850   -3.9342    5.5161 H   0  0  0  0  0  0  0  0  0  0  0  0
   13.0906   -5.2138    4.2990 H   0  0  0  0  0  0  0  0  0  0  0  0
   12.8485   -6.9313    6.1043 H   0  0  0  0  0  0  0  0  0  0  0  0
   12.8443   -5.6514    7.3210 H   0  0  0  0  0  0  0  0  0  0  0  0
   15.1135   -4.9192    6.5586 H   0  0  0  0  0  0  0  0  0  0  0  0
   15.1177   -6.1990    5.3416 H   0  0  0  0  0  0  0  0  0  0  0  0
   14.8804   -7.9165    7.1471 H   0  0  0  0  0  0  0  0  0  0  0  0
   14.8763   -6.6371    8.3639 H   0  0  0  0  0  0  0  0  0  0  0  0
   17.1475   -5.9063    7.6033 H   0  0  0  0  0  0  0  0  0  0  0  0
   17.1516   -7.1859    6.3863 H   0  0  0  0  0  0  0  0  0  0  0  0
   16.9143   -8.9036    8.1923 H   0  0  0  0  0  0  0  0  0  0  0  0
   16.9102   -7.6246    9.4087 H   0  0  0  0  0  0  0  0  0  0  0  0
   19.1941   -6.9082    8.6635 H   0  0  0  0  0  0  0  0  0  0  0  0
   19.1982   -8.1877    7.4467 H   0  0  0  0  0  0  0  0  0  0  0  0
   18.9745   -8.6230   10.4717 H   0  0  0  0  0  0  0  0  0  0  0  0
   20.4206   -8.9005    9.4814 H   0  0  0  0  0  0  0  0  0  0  0  0
   18.9786   -9.9083    9.2493 H   0  0  0  0  0  0  0  0  0  0  0  0
  1  2  1  0  0  0  0
  1 20  1  0  0  0  0
  1 21  1  0  0  0  0
  1 22  1  0  0  0  0
  2  3  1  0  0  0  0
  2 23  1  0  0  0  0
  2 24  1  0  0  0  0
  3  4  1  0  0  0  0
  3 25  1  0  0  0  0
  3 26  1  0  0  0  0
  4  5  1  0  0  0  0
  4 27  1  0  0  0  0
  4 28  1  0  0  0  0
  5  6  1  0  0  0  0
  5 29  1  0  0  0  0
  5 30  1  0  0  0  0
  6  7  1  0  0  0  0
  6 31  1  0  0  0  0
  6 32  1  0  0  0  0
  7  8  1  0  0  0  0
  7 33  1  0  0  0  0
  7 34  1  0  0  0  0
  8  9  1  0  0  0  0
  8 35  1  0  0  0  0
  8 36  1  0  0  0  0
  9 10  1  0  0  0  0
  9 37  1  0  0  0  0
  9 38  1  0  0  0  0
 10 11  1  0  0  0  0
 10 39  1  0  0  0  0
 10 40  1  0  0  0  0
 11 12  1  0  0  0  0
 11 41  1  0  0  0  0
 11 42  1  0  0  0  0
 12 13  1  0  0  0  0
 12 43  1  0  0  0  0
 12 44  1  0  0  0  0
 13 14  1  0  0  0  0
 13 45  1  0  0  0  0
 13 46  1  0  0  0  0
 14 15  1  0  0  0  0
 14 47  1  0  0  0  0
 14 48  1  0  0  0  0
 15 16  1  0  0  0  0
 15 49  1  0  0  0  0
 15 50  1  0  0  0  0
 16 17  1  0  0  0  0
 16 51  1  0  0  0  0
 16 52  1  0  0  0  0
 17 18  1  0  0  0  0
 17 53  1  0  0  0  0
 17 54  1  0  0  0  0
 18 19  1  0  0  0  0
 18 55  1  0  0  0  0
 18 56  1  0  0  0  0
 19 57  1  0  0  0  0
 19 58  1  0  0  0  0
 19 59  1  0  0  0  0
M  END
$$$$
