
 OpenBabel09122409353D

 28 27  0  0  0  0  0  0  0  0999 V2000
    1.0234   -0.0011   -0.0679 C   0  0  0  0  0  0  0  0  0  0  0  0
    2.5426   -0.0178   -0.0647 C   0  0  0  0  0  0  0  0  0  0  0  0
    3.0801   -1.3148    0.5369 C   0  0  0  0  0  0  0  0  0  0  0  0
    4.6081   -1.3312    0.5422 C   0  0  0  0  0  0  0  0  0  0  0  0
    5.1407   -2.6309    1.1432 C   0  0  0  0  0  0  0  0  0  0  0  0
    6.6685   -2.6505    1.1522 C   0  0  0  0  0  0  0  0  0  0  0  0
    7.1953   -3.9510    1.7559 C   0  0  0  0  0  0  0  0  0  0  0  0
    8.7191   -3.9802    1.7698 C   0  0  0  0  0  0  0  0  0  0  0  0
    9.2624   -5.2573    2.3621 C   0  0  0  0  0  0  0  0  0  0  0  0
    8.5740   -6.1782    2.7882 O   0  0  0  0  0  0  0  0  0  0  0  0
    0.6547    0.9336   -0.5015 H   0  0  0  0  0  0  0  0  0  0  0  0
    0.6291   -0.0834    0.9500 H   0  0  0  0  0  0  0  0  0  0  0  0
    0.6244   -0.8316   -0.6587 H   0  0  0  0  0  0  0  0  0  0  0  0
    2.9123    0.8403    0.5090 H   0  0  0  0  0  0  0  0  0  0  0  0
    2.9079    0.0962   -1.0919 H   0  0  0  0  0  0  0  0  0  0  0  0
    2.7052   -2.1700   -0.0383 H   0  0  0  0  0  0  0  0  0  0  0  0
    2.7080   -1.4274    1.5627 H   0  0  0  0  0  0  0  0  0  0  0  0
    4.9841   -0.4775    1.1191 H   0  0  0  0  0  0  0  0  0  0  0  0
    4.9817   -1.2194   -0.4829 H   0  0  0  0  0  0  0  0  0  0  0  0
    4.7651   -3.4845    0.5657 H   0  0  0  0  0  0  0  0  0  0  0  0
    4.7653   -2.7436    2.1676 H   0  0  0  0  0  0  0  0  0  0  0  0
    7.0445   -1.7968    1.7292 H   0  0  0  0  0  0  0  0  0  0  0  0
    7.0445   -2.5400    0.1278 H   0  0  0  0  0  0  0  0  0  0  0  0
    6.8145   -4.8054    1.1824 H   0  0  0  0  0  0  0  0  0  0  0  0
    6.8143   -4.0638    2.7787 H   0  0  0  0  0  0  0  0  0  0  0  0
    9.1127   -3.1466    2.3615 H   0  0  0  0  0  0  0  0  0  0  0  0
    9.1133   -3.8930    0.7516 H   0  0  0  0  0  0  0  0  0  0  0  0
   10.3642   -5.3231    2.3937 H   0  0  0  0  0  0  0  0  0  0  0  0
  1  2  1  0  0  0  0
  1 11  1  0  0  0  0
  1 12  1  0  0  0  0
  1 13  1  0  0  0  0
  2  3  1  0  0  0  0
  2 14  1  0  0  0  0
  2 15  1  0  0  0  0
  3  4  1  0  0  0  0
  3 16  1  0  0  0  0
  3 17  1  0  0  0  0
  4  5  1  0  0  0  0
  4 18  1  0  0  0  0
  4 19  1  0  0  0  0
  5  6  1  0  0  0  0
  5 20  1  0  0  0  0
  5 21  1  0  0  0  0
  6  7  1  0  0  0  0
  6 22  1  0  0  0  0
  6 23  1  0  0  0  0
  7  8  1  0  0  0  0
  7 24  1  0  0  0  0
  7 25  1  0  0  0  0
  8  9  1  0  0  0  0
  8 26  1  0  0  0  0
  8 27  1  0  0  0  0
  9 10  2  0  0  0  0
  9 28  1  0  0  0  0
M  END
$$$$
