
 OpenBabel08302407283D

 21 21  0  0  0  0  0  0  0  0999 V2000
    2.8519    0.8664   -1.0408 C   0  0  0  0  0  0  0  0  0  0  0  0
    2.3828   -0.0040    0.1203 C   0  0  0  0  0  0  0  0  0  0  0  0
    2.8930   -1.4291    0.0656 C   0  0  0  0  0  0  0  0  0  0  0  0
    4.2853   -1.6447    0.0915 C   0  0  0  0  0  0  0  0  0  0  0  0
    4.8189   -2.9323    0.0889 C   0  0  0  0  0  0  0  0  0  0  0  0
    3.9722   -4.0327    0.0686 C   0  0  0  0  0  0  0  0  0  0  0  0
    2.5916   -3.8427    0.0477 C   0  0  0  0  0  0  0  0  0  0  0  0
    2.0358   -2.5508    0.0477 C   0  0  0  0  0  0  0  0  0  0  0  0
    0.5365   -2.4199    0.0410 C   0  0  0  0  0  0  0  0  0  0  0  0
    2.4584    1.8822   -0.9283 H   0  0  0  0  0  0  0  0  0  0  0  0
    2.5006    0.4695   -1.9985 H   0  0  0  0  0  0  0  0  0  0  0  0
    3.9428    0.9400   -1.0848 H   0  0  0  0  0  0  0  0  0  0  0  0
    1.2891    0.0270    0.1429 H   0  0  0  0  0  0  0  0  0  0  0  0
    2.7155    0.4401    1.0669 H   0  0  0  0  0  0  0  0  0  0  0  0
    4.9686   -0.7989    0.1257 H   0  0  0  0  0  0  0  0  0  0  0  0
    5.8971   -3.0734    0.1102 H   0  0  0  0  0  0  0  0  0  0  0  0
    4.3832   -5.0377    0.0760 H   0  0  0  0  0  0  0  0  0  0  0  0
    1.9452   -4.7186    0.0400 H   0  0  0  0  0  0  0  0  0  0  0  0
    0.0471   -3.3998    0.0331 H   0  0  0  0  0  0  0  0  0  0  0  0
    0.2051   -1.8822   -0.8535 H   0  0  0  0  0  0  0  0  0  0  0  0
    0.1952   -1.8948    0.9382 H   0  0  0  0  0  0  0  0  0  0  0  0
  1  2  1  0  0  0  0
  1 10  1  0  0  0  0
  1 11  1  0  0  0  0
  1 12  1  0  0  0  0
  2  3  1  0  0  0  0
  2 13  1  0  0  0  0
  2 14  1  0  0  0  0
  3  4  2  0  0  0  0
  3  8  1  0  0  0  0
  4  5  1  0  0  0  0
  4 15  1  0  0  0  0
  5  6  2  0  0  0  0
  5 16  1  0  0  0  0
  6  7  1  0  0  0  0
  6 17  1  0  0  0  0
  7  8  2  0  0  0  0
  7 18  1  0  0  0  0
  8  9  1  0  0  0  0
  9 19  1  0  0  0  0
  9 20  1  0  0  0  0
  9 21  1  0  0  0  0
M  END
$$$$
