
 OpenBabel11082423073D

 27 26  0  0  0  0  0  0  0  0999 V2000
    0.8935   -0.0630    0.0603 C   0  0  0  0  0  0  0  0  0  0  0  0
    2.4128   -0.0659    0.0495 C   0  0  0  0  0  0  0  0  0  0  0  0
    2.9517    0.0195   -1.3769 C   0  0  0  0  0  0  0  0  0  0  0  0
    4.4792    0.0192   -1.3960 C   0  0  0  0  0  0  0  0  0  0  0  0
    5.0072    0.1065   -2.8273 C   0  0  0  0  0  0  0  0  0  0  0  0
    6.5346    0.1070   -2.8546 C   0  0  0  0  0  0  0  0  0  0  0  0
    7.0599    0.1942   -4.2891 C   0  0  0  0  0  0  0  0  0  0  0  0
    8.5847    0.1932   -4.3074 C   0  0  0  0  0  0  0  0  0  0  0  0
    9.2033    0.2973   -6.0110 S   0  0  0  0  0  0  0  0  0  0  0  0
    0.5201   -0.1245    1.0881 H   0  0  0  0  0  0  0  0  0  0  0  0
    0.4964   -0.9168   -0.4978 H   0  0  0  0  0  0  0  0  0  0  0  0
    0.5005    0.8540   -0.3903 H   0  0  0  0  0  0  0  0  0  0  0  0
    2.7765   -0.9803    0.5322 H   0  0  0  0  0  0  0  0  0  0  0  0
    2.7805    0.7821    0.6391 H   0  0  0  0  0  0  0  0  0  0  0  0
    2.5786    0.9328   -1.8567 H   0  0  0  0  0  0  0  0  0  0  0  0
    2.5770   -0.8288   -1.9628 H   0  0  0  0  0  0  0  0  0  0  0  0
    4.8542   -0.8948   -0.9196 H   0  0  0  0  0  0  0  0  0  0  0  0
    4.8559    0.8674   -0.8114 H   0  0  0  0  0  0  0  0  0  0  0  0
    4.6305    1.0206   -3.3029 H   0  0  0  0  0  0  0  0  0  0  0  0
    4.6287   -0.7411   -3.4113 H   0  0  0  0  0  0  0  0  0  0  0  0
    6.9113   -0.8068   -2.3791 H   0  0  0  0  0  0  0  0  0  0  0  0
    6.9129    0.9554   -2.2715 H   0  0  0  0  0  0  0  0  0  0  0  0
    6.6765    1.1091   -4.7579 H   0  0  0  0  0  0  0  0  0  0  0  0
    6.6736   -0.6561   -4.8654 H   0  0  0  0  0  0  0  0  0  0  0  0
    8.9750   -0.7222   -3.8513 H   0  0  0  0  0  0  0  0  0  0  0  0
    8.9766    1.0463   -3.7446 H   0  0  0  0  0  0  0  0  0  0  0  0
    8.6402   -0.8383   -6.4495 H   0  0  0  0  0  0  0  0  0  0  0  0
  1  2  1  0  0  0  0
  1 10  1  0  0  0  0
  1 11  1  0  0  0  0
  1 12  1  0  0  0  0
  2  3  1  0  0  0  0
  2 13  1  0  0  0  0
  2 14  1  0  0  0  0
  3  4  1  0  0  0  0
  3 15  1  0  0  0  0
  3 16  1  0  0  0  0
  4  5  1  0  0  0  0
  4 17  1  0  0  0  0
  4 18  1  0  0  0  0
  5  6  1  0  0  0  0
  5 19  1  0  0  0  0
  5 20  1  0  0  0  0
  6  7  1  0  0  0  0
  6 21  1  0  0  0  0
  6 22  1  0  0  0  0
  7  8  1  0  0  0  0
  7 23  1  0  0  0  0
  7 24  1  0  0  0  0
  8  9  1  0  0  0  0
  8 25  1  0  0  0  0
  8 26  1  0  0  0  0
  9 27  1  0  0  0  0
M  END
$$$$
