
 OpenBabel09032410503D

 25 24  0  0  0  0  0  0  0  0999 V2000
    0.9121   -0.0307    0.0507 C   0  0  0  0  0  0  0  0  0  0  0  0
    2.4313   -0.0441    0.0585 C   0  0  0  0  0  0  0  0  0  0  0  0
    2.9651   -1.1547    0.9596 C   0  0  0  0  0  0  0  0  0  0  0  0
    4.4914   -1.1711    0.9724 C   0  0  0  0  0  0  0  0  0  0  0  0
    5.0171   -2.2837    1.8775 C   0  0  0  0  0  0  0  0  0  0  0  0
    6.5431   -2.2993    1.8904 C   0  0  0  0  0  0  0  0  0  0  0  0
    7.0790   -3.4053    2.7904 C   0  0  0  0  0  0  0  0  0  0  0  0
    8.5880   -3.4362    2.8156 C   0  0  0  0  0  0  0  0  0  0  0  0
    9.3137   -2.6698    2.1920 O   0  0  0  0  0  0  0  0  0  0  0  0
    0.5426    0.7690   -0.5980 H   0  0  0  0  0  0  0  0  0  0  0  0
    0.5181    0.1371    1.0582 H   0  0  0  0  0  0  0  0  0  0  0  0
    0.5152   -0.9816   -0.3190 H   0  0  0  0  0  0  0  0  0  0  0  0
    2.8006    0.9281    0.4052 H   0  0  0  0  0  0  0  0  0  0  0  0
    2.7980   -0.1849   -0.9649 H   0  0  0  0  0  0  0  0  0  0  0  0
    2.5904   -2.1246    0.6103 H   0  0  0  0  0  0  0  0  0  0  0  0
    2.5909   -1.0125    1.9808 H   0  0  0  0  0  0  0  0  0  0  0  0
    4.8686   -0.2021    1.3217 H   0  0  0  0  0  0  0  0  0  0  0  0
    4.8680   -1.3161   -0.0476 H   0  0  0  0  0  0  0  0  0  0  0  0
    4.6403   -3.2527    1.5278 H   0  0  0  0  0  0  0  0  0  0  0  0
    4.6402   -2.1386    2.8973 H   0  0  0  0  0  0  0  0  0  0  0  0
    6.9189   -1.3277    2.2347 H   0  0  0  0  0  0  0  0  0  0  0  0
    6.9192   -2.4388    0.8692 H   0  0  0  0  0  0  0  0  0  0  0  0
    6.7319   -4.3845    2.4436 H   0  0  0  0  0  0  0  0  0  0  0  0
    6.7318   -3.2647    3.8197 H   0  0  0  0  0  0  0  0  0  0  0  0
    9.0249   -4.2227    3.4556 H   0  0  0  0  0  0  0  0  0  0  0  0
  1  2  1  0  0  0  0
  1 10  1  0  0  0  0
  1 11  1  0  0  0  0
  1 12  1  0  0  0  0
  2  3  1  0  0  0  0
  2 13  1  0  0  0  0
  2 14  1  0  0  0  0
  3  4  1  0  0  0  0
  3 15  1  0  0  0  0
  3 16  1  0  0  0  0
  4  5  1  0  0  0  0
  4 17  1  0  0  0  0
  4 18  1  0  0  0  0
  5  6  1  0  0  0  0
  5 19  1  0  0  0  0
  5 20  1  0  0  0  0
  6  7  1  0  0  0  0
  6 21  1  0  0  0  0
  6 22  1  0  0  0  0
  7  8  1  0  0  0  0
  7 23  1  0  0  0  0
  7 24  1  0  0  0  0
  8  9  2  0  0  0  0
  8 25  1  0  0  0  0
M  END
$$$$
