
 OpenBabel09012409573D

 22 21  0  0  0  0  0  0  0  0999 V2000
    0.8800    0.0076    0.0181 C   0  0  0  0  0  0  0  0  0  0  0  0
    2.4006    0.0012    0.0337 C   0  0  0  0  0  0  0  0  0  0  0  0
    2.9369   -0.6695    1.2968 C   0  0  0  0  0  0  0  0  0  0  0  0
    4.4661   -0.6834    1.3238 C   0  0  0  0  0  0  0  0  0  0  0  0
    4.9794   -1.3603    2.5954 C   0  0  0  0  0  0  0  0  0  0  0  0
    6.5027   -1.3865    2.6483 C   0  0  0  0  0  0  0  0  0  0  0  0
    7.0904   -2.0518    3.8977 C   0  0  0  0  0  0  0  0  0  0  0  0
    6.2677   -2.5025    4.7409 O   0  0  0  0  0  0  0  0  0  0  0  0
    8.3556   -2.0654    3.9268 O   0  5  0  0  0  0  0  0  0  0  0  0
    0.5115    0.4907   -0.8918 H   0  0  0  0  0  0  0  0  0  0  0  0
    0.4816    0.5541    0.8790 H   0  0  0  0  0  0  0  0  0  0  0  0
    0.4837   -1.0126    0.0463 H   0  0  0  0  0  0  0  0  0  0  0  0
    2.7663    1.0328   -0.0256 H   0  0  0  0  0  0  0  0  0  0  0  0
    2.7682   -0.5261   -0.8542 H   0  0  0  0  0  0  0  0  0  0  0  0
    2.5607   -1.6983    1.3530 H   0  0  0  0  0  0  0  0  0  0  0  0
    2.5602   -0.1401    2.1806 H   0  0  0  0  0  0  0  0  0  0  0  0
    4.8459    0.3443    1.2725 H   0  0  0  0  0  0  0  0  0  0  0  0
    4.8464   -1.2143    0.4427 H   0  0  0  0  0  0  0  0  0  0  0  0
    4.5918   -2.3856    2.6446 H   0  0  0  0  0  0  0  0  0  0  0  0
    4.5898   -0.8303    3.4735 H   0  0  0  0  0  0  0  0  0  0  0  0
    6.8891   -0.3607    2.6040 H   0  0  0  0  0  0  0  0  0  0  0  0
    6.8912   -1.9206    1.7724 H   0  0  0  0  0  0  0  0  0  0  0  0
  1  2  1  0  0  0  0
  1 10  1  0  0  0  0
  1 11  1  0  0  0  0
  1 12  1  0  0  0  0
  2  3  1  0  0  0  0
  2 13  1  0  0  0  0
  2 14  1  0  0  0  0
  3  4  1  0  0  0  0
  3 15  1  0  0  0  0
  3 16  1  0  0  0  0
  4  5  1  0  0  0  0
  4 17  1  0  0  0  0
  4 18  1  0  0  0  0
  5  6  1  0  0  0  0
  5 19  1  0  0  0  0
  5 20  1  0  0  0  0
  6  7  1  0  0  0  0
  6 21  1  0  0  0  0
  6 22  1  0  0  0  0
  7  8  2  0  0  0  0
  7  9  1  0  0  0  0
M  CHG  1   9  -1
M  END
$$$$
