
 OpenBabel08282418203D

 32 32  0  0  0  0  0  0  0  0999 V2000
    2.7724    1.3623   -0.4985 C   0  0  0  0  0  0  0  0  0  0  0  0
    2.3719   -0.0533   -0.0950 C   0  0  0  0  0  0  0  0  0  0  0  0
    3.0023   -0.5950    1.2285 C   0  0  0  0  0  0  0  0  0  0  0  0
    2.5271    0.2988    2.3986 C   0  0  0  0  0  0  0  0  0  0  0  0
    2.4105   -2.0049    1.4639 C   0  0  0  0  0  0  0  0  0  0  0  0
    4.5852   -0.6278    1.1657 C   0  0  0  0  0  0  0  0  0  0  0  0
    5.1324   -1.5113    0.0186 C   0  0  0  0  0  0  0  0  0  0  0  0
    6.6530   -1.4613   -0.0849 C   0  0  0  0  0  0  0  0  0  0  0  0
    7.2938   -1.7690    1.2453 C   0  0  0  0  0  0  0  0  0  0  0  0
    8.2718   -2.5080    1.3362 O   0  0  0  0  0  0  0  0  0  0  0  0
    6.7720   -0.9972    2.4286 C   0  0  0  0  0  0  0  0  0  0  0  0
    5.2506   -1.0706    2.4910 C   0  0  0  0  0  0  0  0  0  0  0  0
    2.2880    1.6276   -1.4444 H   0  0  0  0  0  0  0  0  0  0  0  0
    3.8507    1.4573   -0.6474 H   0  0  0  0  0  0  0  0  0  0  0  0
    2.4544    2.0988    0.2448 H   0  0  0  0  0  0  0  0  0  0  0  0
    2.6054   -0.7280   -0.9269 H   0  0  0  0  0  0  0  0  0  0  0  0
    1.2772   -0.0744   -0.0060 H   0  0  0  0  0  0  0  0  0  0  0  0
    1.4335    0.3731    2.4178 H   0  0  0  0  0  0  0  0  0  0  0  0
    2.9313    1.3131    2.3231 H   0  0  0  0  0  0  0  0  0  0  0  0
    2.8257   -0.1053    3.3708 H   0  0  0  0  0  0  0  0  0  0  0  0
    1.3221   -1.9556    1.5882 H   0  0  0  0  0  0  0  0  0  0  0  0
    2.8117   -2.4732    2.3673 H   0  0  0  0  0  0  0  0  0  0  0  0
    2.6045   -2.6733    0.6189 H   0  0  0  0  0  0  0  0  0  0  0  0
    4.9227    0.3996    0.9796 H   0  0  0  0  0  0  0  0  0  0  0  0
    4.7212   -1.1992   -0.9455 H   0  0  0  0  0  0  0  0  0  0  0  0
    4.8303   -2.5537    0.1776 H   0  0  0  0  0  0  0  0  0  0  0  0
    6.9906   -0.4677   -0.4017 H   0  0  0  0  0  0  0  0  0  0  0  0
    6.9974   -2.1914   -0.8241 H   0  0  0  0  0  0  0  0  0  0  0  0
    7.1093    0.0390    2.3404 H   0  0  0  0  0  0  0  0  0  0  0  0
    7.1975   -1.4163    3.3489 H   0  0  0  0  0  0  0  0  0  0  0  0
    4.9269   -0.4359    3.3208 H   0  0  0  0  0  0  0  0  0  0  0  0
    4.9575   -2.0989    2.7329 H   0  0  0  0  0  0  0  0  0  0  0  0
  1  2  1  0  0  0  0
  1 13  1  0  0  0  0
  1 14  1  0  0  0  0
  1 15  1  0  0  0  0
  2  3  1  0  0  0  0
  2 16  1  0  0  0  0
  2 17  1  0  0  0  0
  3  4  1  0  0  0  0
  3  5  1  0  0  0  0
  3  6  1  0  0  0  0
  4 18  1  0  0  0  0
  4 19  1  0  0  0  0
  4 20  1  0  0  0  0
  5 21  1  0  0  0  0
  5 22  1  0  0  0  0
  5 23  1  0  0  0  0
  6  7  1  0  0  0  0
  6 12  1  0  0  0  0
  6 24  1  0  0  0  0
  7  8  1  0  0  0  0
  7 25  1  0  0  0  0
  7 26  1  0  0  0  0
  8  9  1  0  0  0  0
  8 27  1  0  0  0  0
  8 28  1  0  0  0  0
  9 10  2  0  0  0  0
  9 11  1  0  0  0  0
 11 12  1  0  0  0  0
 11 29  1  0  0  0  0
 11 30  1  0  0  0  0
 12 31  1  0  0  0  0
 12 32  1  0  0  0  0
M  END
$$$$
