
 OpenBabel08302408313D

 21 21  0  0  0  0  0  0  0  0999 V2000
    2.4804   -0.1210   -0.0072 C   0  0  0  0  0  0  0  0  0  0  0  0
    0.9833   -0.0231    0.0007 C   0  0  0  0  0  0  0  0  0  0  0  0
    0.1843   -1.1731   -0.0007 C   0  0  0  0  0  0  0  0  0  0  0  0
   -1.2077   -1.0637    0.0054 C   0  0  0  0  0  0  0  0  0  0  0  0
   -1.8046    0.1974    0.0211 C   0  0  0  0  0  0  0  0  0  0  0  0
   -1.0248    1.3498    0.0009 C   0  0  0  0  0  0  0  0  0  0  0  0
    0.3676    1.2360    0.0005 C   0  0  0  0  0  0  0  0  0  0  0  0
   -3.2146    0.2080   -0.0204 O   0  0  0  0  0  0  0  0  0  0  0  0
   -3.9695    1.2166    0.5778 C   0  0  0  0  0  0  0  0  0  0  0  0
   -3.5492    2.1762    1.2096 O   0  0  0  0  0  0  0  0  0  0  0  0
   -5.4280    0.9489    0.3466 C   0  0  0  0  0  0  0  0  0  0  0  0
    2.8156   -1.1632    0.0128 H   0  0  0  0  0  0  0  0  0  0  0  0
    2.8963    0.3820    0.8720 H   0  0  0  0  0  0  0  0  0  0  0  0
    2.8833    0.3448   -0.9123 H   0  0  0  0  0  0  0  0  0  0  0  0
    0.6397   -2.1608   -0.0094 H   0  0  0  0  0  0  0  0  0  0  0  0
   -1.8210   -1.9601   -0.0026 H   0  0  0  0  0  0  0  0  0  0  0  0
   -1.4721    2.3387   -0.0163 H   0  0  0  0  0  0  0  0  0  0  0  0
    0.9725    2.1409   -0.0032 H   0  0  0  0  0  0  0  0  0  0  0  0
   -5.5737    0.0279   -0.2253 H   0  0  0  0  0  0  0  0  0  0  0  0
   -5.8626    1.7783   -0.2168 H   0  0  0  0  0  0  0  0  0  0  0  0
   -5.9290    0.8368    1.3112 H   0  0  0  0  0  0  0  0  0  0  0  0
  1  2  1  0  0  0  0
  1 12  1  0  0  0  0
  1 13  1  0  0  0  0
  1 14  1  0  0  0  0
  2  3  2  0  0  0  0
  2  7  1  0  0  0  0
  3  4  1  0  0  0  0
  3 15  1  0  0  0  0
  4  5  2  0  0  0  0
  4 16  1  0  0  0  0
  5  6  1  0  0  0  0
  5  8  1  0  0  0  0
  6  7  2  0  0  0  0
  6 17  1  0  0  0  0
  7 18  1  0  0  0  0
  8  9  1  0  0  0  0
  9 10  2  0  0  0  0
  9 11  1  0  0  0  0
 11 19  1  0  0  0  0
 11 20  1  0  0  0  0
 11 21  1  0  0  0  0
M  END
$$$$
