
 OpenBabel09042408373D

 31 31  0  0  1  0  0  0  0  0999 V2000
    5.4663   -0.6451    0.7109 C   0  0  0  0  0  0  0  0  0  0  0  0
    4.6629    0.3845    1.5377 C   0  0  0  0  0  0  0  0  0  0  0  0
    5.2587    0.4193    2.9596 C   0  0  0  0  0  0  0  0  0  0  0  0
    4.9034    1.7686    0.8935 C   0  0  0  0  0  0  0  0  0  0  0  0
    3.1227    0.0211    1.5529 C   0  0  1  0  0  0  0  0  0  0  0  0
    2.8384   -1.3678    2.1760 C   0  0  0  0  0  0  0  0  0  0  0  0
    1.3522   -1.6908    2.2948 C   0  0  0  0  0  0  0  0  0  0  0  0
    0.6065   -0.5974    3.0500 C   0  0  1  0  0  0  0  0  0  0  0  0
    0.7858    0.7383    2.3513 C   0  0  0  0  0  0  0  0  0  0  0  0
    2.2598    1.1110    2.2401 C   0  0  0  0  0  0  0  0  0  0  0  0
   -0.7723   -0.9220    3.1320 O   0  0  0  0  0  0  0  0  0  0  0  0
    6.5155   -0.3377    0.6174 H   0  0  0  0  0  0  0  0  0  0  0  0
    5.0642   -0.7453   -0.3035 H   0  0  0  0  0  0  0  0  0  0  0  0
    5.4684   -1.6358    1.1762 H   0  0  0  0  0  0  0  0  0  0  0  0
    6.3289    0.6523    2.9305 H   0  0  0  0  0  0  0  0  0  0  0  0
    5.1619   -0.5431    3.4702 H   0  0  0  0  0  0  0  0  0  0  0  0
    4.7802    1.1829    3.5792 H   0  0  0  0  0  0  0  0  0  0  0  0
    5.9622    2.0482    0.9511 H   0  0  0  0  0  0  0  0  0  0  0  0
    4.3509    2.5636    1.4015 H   0  0  0  0  0  0  0  0  0  0  0  0
    4.6159    1.7732   -0.1632 H   0  0  0  0  0  0  0  0  0  0  0  0
    2.7898   -0.0265    0.5053 H   0  0  0  0  0  0  0  0  0  0  0  0
    3.2665   -1.4300    3.1817 H   0  0  0  0  0  0  0  0  0  0  0  0
    3.3112   -2.1536    1.5782 H   0  0  0  0  0  0  0  0  0  0  0  0
    1.2165   -2.6506    2.8080 H   0  0  0  0  0  0  0  0  0  0  0  0
    0.9141   -1.8211    1.2970 H   0  0  0  0  0  0  0  0  0  0  0  0
    0.9852   -0.5354    4.0821 H   0  0  0  0  0  0  0  0  0  0  0  0
    0.2437    1.5221    2.8969 H   0  0  0  0  0  0  0  0  0  0  0  0
    0.3332    0.7063    1.3525 H   0  0  0  0  0  0  0  0  0  0  0  0
    2.6358    1.3129    3.2475 H   0  0  0  0  0  0  0  0  0  0  0  0
    2.3177    2.0513    1.6809 H   0  0  0  0  0  0  0  0  0  0  0  0
   -1.1213   -0.9777    2.2261 H   0  0  0  0  0  0  0  0  0  0  0  0
  1  2  1  0  0  0  0
  1 12  1  0  0  0  0
  1 13  1  0  0  0  0
  1 14  1  0  0  0  0
  2  3  1  0  0  0  0
  2  4  1  0  0  0  0
  3 15  1  0  0  0  0
  3 16  1  0  0  0  0
  3 17  1  0  0  0  0
  4 18  1  0  0  0  0
  4 19  1  0  0  0  0
  4 20  1  0  0  0  0
  5  6  1  0  0  0  0
  5 10  1  0  0  0  0
  5  2  1  0  0  0  0
  5 21  1  6  0  0  0
  6  7  1  0  0  0  0
  6 22  1  0  0  0  0
  6 23  1  0  0  0  0
  7  8  1  0  0  0  0
  7 24  1  0  0  0  0
  7 25  1  0  0  0  0
  8  9  1  0  0  0  0
  8 11  1  0  0  0  0
  8 26  1  1  0  0  0
  9 10  1  0  0  0  0
  9 27  1  0  0  0  0
  9 28  1  0  0  0  0
 10 29  1  0  0  0  0
 10 30  1  0  0  0  0
 11 31  1  0  0  0  0
M  END
$$$$
