
 OpenBabel09022409283D

 28 27  0  0  0  0  0  0  0  0999 V2000
    0.9629    0.1130   -0.0046 C   0  0  0  0  0  0  0  0  0  0  0  0
    2.4804    0.1083    0.0018 C   0  0  0  0  0  0  0  0  0  0  0  0
    3.0110   -0.7230    1.1635 C   0  0  0  0  0  0  0  0  0  0  0  0
    4.5344   -0.7319    1.1723 C   0  0  0  0  0  0  0  0  0  0  0  0
    5.0567   -1.5630    2.3373 C   0  0  0  0  0  0  0  0  0  0  0  0
    6.5817   -1.5717    2.3492 C   0  0  0  0  0  0  0  0  0  0  0  0
    7.0928   -2.4037    3.5187 C   0  0  0  0  0  0  0  0  0  0  0  0
    8.6138   -2.4340    3.5613 C   0  0  0  0  0  0  0  0  0  0  0  0
    9.1754   -3.2596    4.7218 C   0  0  0  0  0  0  0  0  0  0  0  0
    8.3418   -3.8066    5.4908 O   0  0  0  0  0  0  0  0  0  0  0  0
   10.4380   -3.2889    4.7629 O   0  5  0  0  0  0  0  0  0  0  0  0
    0.5882    0.7108   -0.8400 H   0  0  0  0  0  0  0  0  0  0  0  0
    0.5722    0.5383    0.9255 H   0  0  0  0  0  0  0  0  0  0  0  0
    0.5721   -0.9045   -0.1070 H   0  0  0  0  0  0  0  0  0  0  0  0
    2.8493    1.1379    0.0801 H   0  0  0  0  0  0  0  0  0  0  0  0
    2.8491   -0.2981   -0.9475 H   0  0  0  0  0  0  0  0  0  0  0  0
    2.6366   -1.7513    1.0855 H   0  0  0  0  0  0  0  0  0  0  0  0
    2.6389   -0.3155    2.1117 H   0  0  0  0  0  0  0  0  0  0  0  0
    4.9112    0.2949    1.2520 H   0  0  0  0  0  0  0  0  0  0  0  0
    4.9088   -1.1431    0.2271 H   0  0  0  0  0  0  0  0  0  0  0  0
    4.6807   -2.5902    2.2574 H   0  0  0  0  0  0  0  0  0  0  0  0
    4.6807   -1.1535    3.2826 H   0  0  0  0  0  0  0  0  0  0  0  0
    6.9575   -0.5446    2.4288 H   0  0  0  0  0  0  0  0  0  0  0  0
    6.9574   -1.9836    1.4050 H   0  0  0  0  0  0  0  0  0  0  0  0
    6.7042   -3.4262    3.4351 H   0  0  0  0  0  0  0  0  0  0  0  0
    6.7043   -1.9893    4.4573 H   0  0  0  0  0  0  0  0  0  0  0  0
    9.0014   -1.4115    3.6486 H   0  0  0  0  0  0  0  0  0  0  0  0
    9.0013   -2.8519    2.6240 H   0  0  0  0  0  0  0  0  0  0  0  0
  1  2  1  0  0  0  0
  1 12  1  0  0  0  0
  1 13  1  0  0  0  0
  1 14  1  0  0  0  0
  2  3  1  0  0  0  0
  2 15  1  0  0  0  0
  2 16  1  0  0  0  0
  3  4  1  0  0  0  0
  3 17  1  0  0  0  0
  3 18  1  0  0  0  0
  4  5  1  0  0  0  0
  4 19  1  0  0  0  0
  4 20  1  0  0  0  0
  5  6  1  0  0  0  0
  5 21  1  0  0  0  0
  5 22  1  0  0  0  0
  6  7  1  0  0  0  0
  6 23  1  0  0  0  0
  6 24  1  0  0  0  0
  7  8  1  0  0  0  0
  7 25  1  0  0  0  0
  7 26  1  0  0  0  0
  8  9  1  0  0  0  0
  8 27  1  0  0  0  0
  8 28  1  0  0  0  0
  9 10  2  0  0  0  0
  9 11  1  0  0  0  0
M  CHG  1  11  -1
M  END
$$$$
