
 OpenBabel08282508093D

 19 19  0  0  0  0  0  0  0  0999 V2000
    1.3426   -0.2813   -0.0678 C   0  0  0  0  0  0  0  0  0  0  0  0
    0.4367   -1.3415    0.0156 C   0  0  0  0  0  0  0  0  0  0  0  0
   -0.9328   -1.0870    0.0401 C   0  0  0  0  0  0  0  0  0  0  0  0
   -1.3995    0.2251   -0.0112 C   0  0  0  0  0  0  0  0  0  0  0  0
   -0.4940    1.2844   -0.1008 C   0  0  0  0  0  0  0  0  0  0  0  0
    0.8859    1.0425   -0.1274 C   0  0  0  0  0  0  0  0  0  0  0  0
    1.8639    2.1908   -0.2428 C   0  0  0  0  0  0  0  0  0  0  0  0
    1.7772    3.2347    0.8747 C   0  0  0  0  0  0  0  0  0  0  0  0
    2.1716    2.5536    2.5153 S   0  0  0  0  0  0  0  0  0  0  0  0
    2.4088   -0.5001   -0.0824 H   0  0  0  0  0  0  0  0  0  0  0  0
    0.7998   -2.3654    0.0586 H   0  0  0  0  0  0  0  0  0  0  0  0
   -1.6384   -1.9118    0.0985 H   0  0  0  0  0  0  0  0  0  0  0  0
   -2.4663    0.4239    0.0099 H   0  0  0  0  0  0  0  0  0  0  0  0
   -0.8793    2.2989   -0.1505 H   0  0  0  0  0  0  0  0  0  0  0  0
    1.6698    2.6889   -1.2023 H   0  0  0  0  0  0  0  0  0  0  0  0
    2.8914    1.8107   -0.3117 H   0  0  0  0  0  0  0  0  0  0  0  0
    0.7802    3.6840    0.9231 H   0  0  0  0  0  0  0  0  0  0  0  0
    2.4875    4.0425    0.6699 H   0  0  0  0  0  0  0  0  0  0  0  0
    1.1118    1.7313    2.5860 H   0  0  0  0  0  0  0  0  0  0  0  0
  1  2  1  0  0  0  0
  1  6  2  0  0  0  0
  1 10  1  0  0  0  0
  2  3  2  0  0  0  0
  2 11  1  0  0  0  0
  3  4  1  0  0  0  0
  3 12  1  0  0  0  0
  4  5  2  0  0  0  0
  4 13  1  0  0  0  0
  5  6  1  0  0  0  0
  5 14  1  0  0  0  0
  6  7  1  0  0  0  0
  7  8  1  0  0  0  0
  7 15  1  0  0  0  0
  7 16  1  0  0  0  0
  8  9  1  0  0  0  0
  8 17  1  0  0  0  0
  8 18  1  0  0  0  0
  9 19  1  0  0  0  0
M  END
$$$$
