
 OpenBabel10302422523D

 33 33  0  0  0  0  0  0  0  0999 V2000
    2.9798    2.3765   -4.8730 C   0  0  0  0  0  0  0  0  0  0  0  0
    2.5198    1.9768   -3.4690 C   0  0  0  0  0  0  0  0  0  0  0  0
    0.9907    1.9758   -3.4100 C   0  0  0  0  0  0  0  0  0  0  0  0
    3.0681    0.6022   -3.0621 C   0  0  0  0  0  0  0  0  0  0  0  0
    4.5761    0.5415   -3.0570 C   0  0  0  0  0  0  0  0  0  0  0  0
    5.2250   -0.2326   -3.7501 O   0  0  0  0  0  0  0  0  0  0  0  0
    5.1043    1.4486   -2.1905 O   0  0  0  0  0  0  0  0  0  0  0  0
    6.5423    1.4887   -2.1536 C   0  0  0  0  0  0  0  0  0  0  0  0
    7.0832    2.3195   -3.3181 C   0  0  0  0  0  0  0  0  0  0  0  0
    8.5879    2.3601   -3.3329 C   0  0  0  0  0  0  0  0  0  0  0  0
    9.3122    1.3748   -4.0183 C   0  0  0  0  0  0  0  0  0  0  0  0
   10.7076    1.3931   -4.0156 C   0  0  0  0  0  0  0  0  0  0  0  0
   11.3904    2.3931   -3.3256 C   0  0  0  0  0  0  0  0  0  0  0  0
   10.6788    3.3759   -2.6394 C   0  0  0  0  0  0  0  0  0  0  0  0
    9.2831    3.3596   -2.6408 C   0  0  0  0  0  0  0  0  0  0  0  0
    2.5957    3.3676   -5.1366 H   0  0  0  0  0  0  0  0  0  0  0  0
    2.6244    1.6641   -5.6252 H   0  0  0  0  0  0  0  0  0  0  0  0
    4.0715    2.4217   -4.9375 H   0  0  0  0  0  0  0  0  0  0  0  0
    2.8852    2.7333   -2.7635 H   0  0  0  0  0  0  0  0  0  0  0  0
    0.5653    1.2508   -4.1128 H   0  0  0  0  0  0  0  0  0  0  0  0
    0.5925    2.9639   -3.6651 H   0  0  0  0  0  0  0  0  0  0  0  0
    0.6364    1.7223   -2.4055 H   0  0  0  0  0  0  0  0  0  0  0  0
    2.7071   -0.1674   -3.7564 H   0  0  0  0  0  0  0  0  0  0  0  0
    2.7172    0.3160   -2.0633 H   0  0  0  0  0  0  0  0  0  0  0  0
    6.9545    0.4716   -2.1434 H   0  0  0  0  0  0  0  0  0  0  0  0
    6.8244    1.9472   -1.1987 H   0  0  0  0  0  0  0  0  0  0  0  0
    6.6770    3.3378   -3.2663 H   0  0  0  0  0  0  0  0  0  0  0  0
    6.7187    1.9270   -4.2751 H   0  0  0  0  0  0  0  0  0  0  0  0
    8.7913    0.5869   -4.5591 H   0  0  0  0  0  0  0  0  0  0  0  0
   11.2608    0.6263   -4.5515 H   0  0  0  0  0  0  0  0  0  0  0  0
   12.4770    2.4060   -3.3228 H   0  0  0  0  0  0  0  0  0  0  0  0
   11.2119    4.1558   -2.1021 H   0  0  0  0  0  0  0  0  0  0  0  0
    8.7425    4.1320   -2.0987 H   0  0  0  0  0  0  0  0  0  0  0  0
  1  2  1  0  0  0  0
  1 16  1  0  0  0  0
  1 17  1  0  0  0  0
  1 18  1  0  0  0  0
  2  3  1  0  0  0  0
  2  4  1  0  0  0  0
  2 19  1  0  0  0  0
  3 20  1  0  0  0  0
  3 21  1  0  0  0  0
  3 22  1  0  0  0  0
  4  5  1  0  0  0  0
  4 23  1  0  0  0  0
  4 24  1  0  0  0  0
  5  6  2  0  0  0  0
  5  7  1  0  0  0  0
  7  8  1  0  0  0  0
  8  9  1  0  0  0  0
  8 25  1  0  0  0  0
  8 26  1  0  0  0  0
  9 10  1  0  0  0  0
  9 27  1  0  0  0  0
  9 28  1  0  0  0  0
 10 11  2  0  0  0  0
 10 15  1  0  0  0  0
 11 12  1  0  0  0  0
 11 29  1  0  0  0  0
 12 13  2  0  0  0  0
 12 30  1  0  0  0  0
 13 14  1  0  0  0  0
 13 31  1  0  0  0  0
 14 15  2  0  0  0  0
 14 32  1  0  0  0  0
 15 33  1  0  0  0  0
M  END
$$$$
