
 OpenBabel09042508283D

 22 22  0  0  0  0  0  0  0  0999 V2000
    0.7880   -1.2670   -2.0256 S   0  0  0  0  0  0  0  0  0  0  0  0
    2.6041   -1.2839   -2.0821 C   0  0  0  0  0  0  0  0  0  0  0  0
    3.1733   -0.0518   -1.3822 C   0  0  0  0  0  0  0  0  0  0  0  0
    4.7081   -0.0399   -1.3843 C   0  0  0  0  0  0  0  0  0  0  0  0
    5.3169   -0.0154   -2.7665 C   0  0  0  0  0  0  0  0  0  0  0  0
    5.0548    1.0442   -3.6454 C   0  0  0  0  0  0  0  0  0  0  0  0
    5.5947    1.0480   -4.9323 C   0  0  0  0  0  0  0  0  0  0  0  0
    6.4092   -0.0018   -5.3505 C   0  0  0  0  0  0  0  0  0  0  0  0
    6.6856   -1.0545   -4.4805 C   0  0  0  0  0  0  0  0  0  0  0  0
    6.1432   -1.0635   -3.1943 C   0  0  0  0  0  0  0  0  0  0  0  0
    0.6086   -2.3769   -2.7566 H   0  0  0  0  0  0  0  0  0  0  0  0
    2.9030   -1.3192   -3.1335 H   0  0  0  0  0  0  0  0  0  0  0  0
    2.9560   -2.2000   -1.5982 H   0  0  0  0  0  0  0  0  0  0  0  0
    2.8362   -0.0302   -0.3380 H   0  0  0  0  0  0  0  0  0  0  0  0
    2.7924    0.8615   -1.8556 H   0  0  0  0  0  0  0  0  0  0  0  0
    5.0743   -0.9111   -0.8268 H   0  0  0  0  0  0  0  0  0  0  0  0
    5.0648    0.8422   -0.8374 H   0  0  0  0  0  0  0  0  0  0  0  0
    4.4228    1.8737   -3.3366 H   0  0  0  0  0  0  0  0  0  0  0  0
    5.3772    1.8700   -5.6091 H   0  0  0  0  0  0  0  0  0  0  0  0
    6.8292    0.0014   -6.3526 H   0  0  0  0  0  0  0  0  0  0  0  0
    7.3236   -1.8731   -4.8057 H   0  0  0  0  0  0  0  0  0  0  0  0
    6.3680   -1.8964   -2.5323 H   0  0  0  0  0  0  0  0  0  0  0  0
  1  2  1  0  0  0  0
  1 11  1  0  0  0  0
  2  3  1  0  0  0  0
  2 12  1  0  0  0  0
  2 13  1  0  0  0  0
  3  4  1  0  0  0  0
  3 14  1  0  0  0  0
  3 15  1  0  0  0  0
  4  5  1  0  0  0  0
  4 16  1  0  0  0  0
  4 17  1  0  0  0  0
  5  6  1  0  0  0  0
  5 10  2  0  0  0  0
  6  7  2  0  0  0  0
  6 18  1  0  0  0  0
  7  8  1  0  0  0  0
  7 19  1  0  0  0  0
  8  9  2  0  0  0  0
  8 20  1  0  0  0  0
  9 10  1  0  0  0  0
  9 21  1  0  0  0  0
 10 22  1  0  0  0  0
M  END
$$$$
