
 OpenBabel09082422233D

 13 13  0  0  0  0  0  0  0  0999 V2000
   -0.2622   -1.2057    0.0423 C   0  0  0  0  0  0  0  0  0  0  0  0
   -1.6575   -1.2103   -0.0169 C   0  0  0  0  0  0  0  0  0  0  0  0
   -2.3582   -0.0059   -0.0519 C   0  0  0  0  0  0  0  0  0  0  0  0
   -1.6646    1.2030   -0.0254 C   0  0  0  0  0  0  0  0  0  0  0  0
   -0.2688    1.2086    0.0337 C   0  0  0  0  0  0  0  0  0  0  0  0
    0.4397    0.0034    0.0642 C   0  0  0  0  0  0  0  0  0  0  0  0
    2.2184   -0.0189    0.1400 S   0  0  0  0  0  0  0  0  0  0  0  0
    0.2713   -2.1527    0.0700 H   0  0  0  0  0  0  0  0  0  0  0  0
   -2.1960   -2.1544   -0.0350 H   0  0  0  0  0  0  0  0  0  0  0  0
   -3.4441   -0.0098   -0.0990 H   0  0  0  0  0  0  0  0  0  0  0  0
   -2.2106    2.1427   -0.0499 H   0  0  0  0  0  0  0  0  0  0  0  0
    0.2515    2.1623    0.0564 H   0  0  0  0  0  0  0  0  0  0  0  0
    2.4153    1.2943   -0.0417 H   0  0  0  0  0  0  0  0  0  0  0  0
  1  2  1  0  0  0  0
  1  6  2  0  0  0  0
  1  8  1  0  0  0  0
  2  3  2  0  0  0  0
  2  9  1  0  0  0  0
  3  4  1  0  0  0  0
  3 10  1  0  0  0  0
  4  5  2  0  0  0  0
  4 11  1  0  0  0  0
  5  6  1  0  0  0  0
  5 12  1  0  0  0  0
  6  7  1  0  0  0  0
  7 13  1  0  0  0  0
M  END
$$$$
