
 OpenBabel01032513463D

 18 18  0  0  0  0  0  0  0  0999 V2000
    1.4029   -0.3760    0.0075 C   0  0  0  0  0  0  0  0  0  0  0  0
    0.4255   -1.3723    0.0539 C   0  0  0  0  0  0  0  0  0  0  0  0
   -0.9280   -1.0301    0.0375 C   0  0  0  0  0  0  0  0  0  0  0  0
   -1.3093    0.3100   -0.0177 C   0  0  0  0  0  0  0  0  0  0  0  0
   -0.3377    1.3089   -0.0698 C   0  0  0  0  0  0  0  0  0  0  0  0
    1.0148    0.9592   -0.0770 C   0  0  0  0  0  0  0  0  0  0  0  0
    1.9241    2.0359   -0.1142 O   0  0  0  0  0  0  0  0  0  0  0  0
    3.1426    1.9431   -0.7851 C   0  0  0  0  0  0  0  0  0  0  0  0
    3.5992    0.9633   -1.3569 O   0  0  0  0  0  0  0  0  0  0  0  0
    3.8531    3.2642   -0.7082 C   0  0  0  0  0  0  0  0  0  0  0  0
    2.4499   -0.6612    0.0349 H   0  0  0  0  0  0  0  0  0  0  0  0
    0.7212   -2.4168    0.1038 H   0  0  0  0  0  0  0  0  0  0  0  0
   -1.6848   -1.8103    0.0711 H   0  0  0  0  0  0  0  0  0  0  0  0
   -2.3635    0.5759   -0.0199 H   0  0  0  0  0  0  0  0  0  0  0  0
   -0.6337    2.3530   -0.1091 H   0  0  0  0  0  0  0  0  0  0  0  0
    3.1882    4.0461   -0.3299 H   0  0  0  0  0  0  0  0  0  0  0  0
    4.1726    3.5543   -1.7130 H   0  0  0  0  0  0  0  0  0  0  0  0
    4.7159    3.1775   -0.0440 H   0  0  0  0  0  0  0  0  0  0  0  0
  1  2  1  0  0  0  0
  1  6  2  0  0  0  0
  1 11  1  0  0  0  0
  2  3  2  0  0  0  0
  2 12  1  0  0  0  0
  3  4  1  0  0  0  0
  3 13  1  0  0  0  0
  4  5  2  0  0  0  0
  4 14  1  0  0  0  0
  5  6  1  0  0  0  0
  5 15  1  0  0  0  0
  6  7  1  0  0  0  0
  7  8  1  0  0  0  0
  8  9  2  0  0  0  0
  8 10  1  0  0  0  0
 10 16  1  0  0  0  0
 10 17  1  0  0  0  0
 10 18  1  0  0  0  0
M  END
$$$$
