
 OpenBabel10132413303D

 22 22  0  0  0  0  0  0  0  0999 V2000
    1.4458   -0.1661    0.0503 C   0  0  0  0  0  0  0  0  0  0  0  0
    0.9017    1.1144    0.0294 C   0  0  0  0  0  0  0  0  0  0  0  0
   -0.4819    1.2852   -0.0263 C   0  0  0  0  0  0  0  0  0  0  0  0
   -1.3377    0.1765   -0.0724 C   0  0  0  0  0  0  0  0  0  0  0  0
   -0.7795   -1.1100   -0.0333 C   0  0  0  0  0  0  0  0  0  0  0  0
    0.6065   -1.2800    0.0251 C   0  0  0  0  0  0  0  0  0  0  0  0
   -2.8327    0.3707   -0.1606 C   0  0  0  0  0  0  0  0  0  0  0  0
   -3.2933    1.1462   -1.3993 C   0  0  0  0  0  0  0  0  0  0  0  0
   -2.9463    0.4487   -2.7095 C   0  0  0  0  0  0  0  0  0  0  0  0
   -3.4187    1.2235   -3.8052 O   0  0  0  0  0  0  0  0  0  0  0  0
    2.5242   -0.2979    0.0884 H   0  0  0  0  0  0  0  0  0  0  0  0
    1.5538    1.9838    0.0528 H   0  0  0  0  0  0  0  0  0  0  0  0
   -0.8874    2.2934   -0.0404 H   0  0  0  0  0  0  0  0  0  0  0  0
   -1.4164   -1.9917   -0.0532 H   0  0  0  0  0  0  0  0  0  0  0  0
    1.0324   -2.2786    0.0457 H   0  0  0  0  0  0  0  0  0  0  0  0
   -3.1565    0.9113    0.7379 H   0  0  0  0  0  0  0  0  0  0  0  0
   -3.3450   -0.5994   -0.1323 H   0  0  0  0  0  0  0  0  0  0  0  0
   -2.8744    2.1600   -1.4079 H   0  0  0  0  0  0  0  0  0  0  0  0
   -4.3808    1.2860   -1.3470 H   0  0  0  0  0  0  0  0  0  0  0  0
   -3.4033   -0.5445   -2.7647 H   0  0  0  0  0  0  0  0  0  0  0  0
   -1.8651    0.3375   -2.8298 H   0  0  0  0  0  0  0  0  0  0  0  0
   -4.3766    1.3437   -3.6945 H   0  0  0  0  0  0  0  0  0  0  0  0
  1  2  2  0  0  0  0
  1  6  1  0  0  0  0
  1 11  1  0  0  0  0
  2  3  1  0  0  0  0
  2 12  1  0  0  0  0
  3  4  2  0  0  0  0
  3 13  1  0  0  0  0
  4  5  1  0  0  0  0
  4  7  1  0  0  0  0
  5  6  2  0  0  0  0
  5 14  1  0  0  0  0
  6 15  1  0  0  0  0
  7  8  1  0  0  0  0
  7 16  1  0  0  0  0
  7 17  1  0  0  0  0
  8  9  1  0  0  0  0
  8 18  1  0  0  0  0
  8 19  1  0  0  0  0
  9 10  1  0  0  0  0
  9 20  1  0  0  0  0
  9 21  1  0  0  0  0
 10 22  1  0  0  0  0
M  END
$$$$
