
 OpenBabel01032514443D

 26 27  0  0  0  0  0  0  0  0999 V2000
    4.1637   -2.2795    2.3465 C   0  0  0  0  0  0  0  0  0  0  0  0
    4.1309   -1.1788    1.3164 C   0  0  0  0  0  0  0  0  0  0  0  0
    3.5356   -0.1238    1.5245 O   0  0  0  0  0  0  0  0  0  0  0  0
    4.8671   -1.4677    0.0256 C   0  0  0  0  0  0  0  0  0  0  0  0
    4.7603   -0.3325   -0.9935 C   0  0  0  0  0  0  0  0  0  0  0  0
    5.5279   -0.5821   -2.2777 C   0  0  0  0  0  0  0  0  0  0  0  0
    5.6858   -1.8725   -2.8091 C   0  0  0  0  0  0  0  0  0  0  0  0
    6.4031   -2.0215   -3.9766 C   0  0  0  0  0  0  0  0  0  0  0  0
    6.9362   -0.9475   -4.6437 C   0  0  0  0  0  0  0  0  0  0  0  0
    6.7742    0.3398   -4.1825 C   0  0  0  0  0  0  0  0  0  0  0  0
    6.0616    0.5188   -2.9886 C   0  0  0  0  0  0  0  0  0  0  0  0
    7.6065   -1.3186   -5.7672 O   0  0  0  0  0  0  0  0  0  0  0  0
    7.4718   -2.7541   -5.7012 C   0  0  0  0  0  0  0  0  0  0  0  0
    6.6675   -3.2044   -4.5918 O   0  0  0  0  0  0  0  0  0  0  0  0
    3.5890   -1.9828    3.2274 H   0  0  0  0  0  0  0  0  0  0  0  0
    5.1982   -2.4708    2.6435 H   0  0  0  0  0  0  0  0  0  0  0  0
    3.7220   -3.1871    1.9261 H   0  0  0  0  0  0  0  0  0  0  0  0
    4.4329   -2.3884   -0.3778 H   0  0  0  0  0  0  0  0  0  0  0  0
    5.9187   -1.6559    0.2707 H   0  0  0  0  0  0  0  0  0  0  0  0
    5.1355    0.5891   -0.5282 H   0  0  0  0  0  0  0  0  0  0  0  0
    3.7089   -0.1520   -1.2491 H   0  0  0  0  0  0  0  0  0  0  0  0
    5.2714   -2.7549   -2.3364 H   0  0  0  0  0  0  0  0  0  0  0  0
    7.1869    1.1831   -4.7230 H   0  0  0  0  0  0  0  0  0  0  0  0
    5.9247    1.5312   -2.6087 H   0  0  0  0  0  0  0  0  0  0  0  0
    8.4709   -3.1959   -5.6072 H   0  0  0  0  0  0  0  0  0  0  0  0
    7.0150   -3.1101   -6.6310 H   0  0  0  0  0  0  0  0  0  0  0  0
  1  2  1  0  0  0  0
  1 15  1  0  0  0  0
  1 16  1  0  0  0  0
  1 17  1  0  0  0  0
  2  3  2  0  0  0  0
  2  4  1  0  0  0  0
  4  5  1  0  0  0  0
  4 18  1  0  0  0  0
  4 19  1  0  0  0  0
  5  6  1  0  0  0  0
  5 20  1  0  0  0  0
  5 21  1  0  0  0  0
  6  7  2  0  0  0  0
  6 11  1  0  0  0  0
  7  8  1  0  0  0  0
  7 22  1  0  0  0  0
  8  9  2  0  0  0  0
  8 14  1  0  0  0  0
  9 10  1  0  0  0  0
  9 12  1  0  0  0  0
 10 11  2  0  0  0  0
 10 23  1  0  0  0  0
 11 24  1  0  0  0  0
 12 13  1  0  0  0  0
 13 14  1  0  0  0  0
 13 25  1  0  0  0  0
 13 26  1  0  0  0  0
M  END
$$$$
