
 OpenBabel10142516173D

 33 33  0  0  1  0  0  0  0  0999 V2000
    8.1190    1.0320    1.3123 C   0  0  0  0  0  0  0  0  0  0  0  0
    8.3050   -0.3730    1.8572 C   0  0  0  0  0  0  0  0  0  0  0  0
    7.0130   -0.9906    1.8892 O   0  0  0  0  0  0  0  0  0  0  0  0
    6.3060   -0.7489    3.0256 C   0  0  0  0  0  0  0  0  0  0  0  0
    6.7775   -0.3579    4.0825 O   0  0  0  0  0  0  0  0  0  0  0  0
    4.8177   -0.9300    2.7595 C   0  0  3  0  0  0  0  0  0  0  0  0
    4.3052   -2.3452    3.0981 C   0  0  0  0  0  0  0  0  0  0  0  0
    4.5169   -2.7306    4.5720 C   0  0  0  0  0  0  0  0  0  0  0  0
    3.9813   -4.1259    4.8739 C   0  0  0  0  0  0  0  0  0  0  0  0
    4.5911   -5.1706    3.9465 C   0  0  0  0  0  0  0  0  0  0  0  0
    4.3748   -4.8070    2.4812 C   0  0  0  0  0  0  0  0  0  0  0  0
    4.9137   -3.4125    2.1688 C   0  0  0  0  0  0  0  0  0  0  0  0
    4.0641    0.1716    3.5115 C   0  0  0  0  0  0  0  0  0  0  0  0
    9.0658    1.5668    1.2570 H   0  0  0  0  0  0  0  0  0  0  0  0
    7.4240    1.6024    1.9377 H   0  0  0  0  0  0  0  0  0  0  0  0
    7.6719    0.9899    0.3119 H   0  0  0  0  0  0  0  0  0  0  0  0
    8.7861   -0.3615    2.8433 H   0  0  0  0  0  0  0  0  0  0  0  0
    8.9442   -0.9601    1.1888 H   0  0  0  0  0  0  0  0  0  0  0  0
    4.6480   -0.7390    1.6919 H   0  0  0  0  0  0  0  0  0  0  0  0
    3.2201   -2.3421    2.9114 H   0  0  0  0  0  0  0  0  0  0  0  0
    4.0153   -2.0163    5.2326 H   0  0  0  0  0  0  0  0  0  0  0  0
    5.5849   -2.7024    4.8194 H   0  0  0  0  0  0  0  0  0  0  0  0
    2.8892   -4.1290    4.7642 H   0  0  0  0  0  0  0  0  0  0  0  0
    4.1995   -4.3832    5.9156 H   0  0  0  0  0  0  0  0  0  0  0  0
    4.1513   -6.1509    4.1545 H   0  0  0  0  0  0  0  0  0  0  0  0
    5.6668   -5.2515    4.1470 H   0  0  0  0  0  0  0  0  0  0  0  0
    3.3043   -4.8483    2.2462 H   0  0  0  0  0  0  0  0  0  0  0  0
    4.8714   -5.5456    1.8416 H   0  0  0  0  0  0  0  0  0  0  0  0
    4.6949   -3.1679    1.1215 H   0  0  0  0  0  0  0  0  0  0  0  0
    6.0048   -3.4299    2.2716 H   0  0  0  0  0  0  0  0  0  0  0  0
    4.2199    0.1154    4.5933 H   0  0  0  0  0  0  0  0  0  0  0  0
    2.9893    0.1166    3.3142 H   0  0  0  0  0  0  0  0  0  0  0  0
    4.4172    1.1609    3.1943 H   0  0  0  0  0  0  0  0  0  0  0  0
  1  2  1  0  0  0  0
  1 14  1  0  0  0  0
  1 15  1  0  0  0  0
  1 16  1  0  0  0  0
  2  3  1  0  0  0  0
  2 17  1  0  0  0  0
  2 18  1  0  0  0  0
  3  4  1  0  0  0  0
  4  5  2  0  0  0  0
  4  6  1  0  0  0  0
  6  7  1  0  0  0  0
  6 13  1  0  0  0  0
  6 19  1  0  0  0  0
  7  8  1  0  0  0  0
  7 12  1  0  0  0  0
  7 20  1  0  0  0  0
  8  9  1  0  0  0  0
  8 21  1  0  0  0  0
  8 22  1  0  0  0  0
  9 10  1  0  0  0  0
  9 23  1  0  0  0  0
  9 24  1  0  0  0  0
 10 11  1  0  0  0  0
 10 25  1  0  0  0  0
 10 26  1  0  0  0  0
 11 12  1  0  0  0  0
 11 27  1  0  0  0  0
 11 28  1  0  0  0  0
 12 29  1  0  0  0  0
 12 30  1  0  0  0  0
 13 31  1  0  0  0  0
 13 32  1  0  0  0  0
 13 33  1  0  0  0  0
M  END
$$$$
