
 OpenBabel02072513113D

 16 15  0  0  0  0  0  0  0  0999 V2000
    1.0140    0.0259    0.1013 C   0  0  0  0  0  0  0  0  0  0  0  0
    2.5188    0.0598    0.0926 C   0  0  0  0  0  0  0  0  0  0  0  0
    3.1730    1.3186   -0.4009 C   0  0  0  0  0  0  0  0  0  0  0  0
    3.2212   -1.0146    0.5091 C   0  0  0  0  0  0  0  0  0  0  0  0
    4.7141   -1.1492    0.5373 C   0  0  0  0  0  0  0  0  0  0  0  0
    5.2670   -1.4297    2.2381 S   0  0  0  0  0  0  0  0  0  0  0  0
    0.5821    0.9656   -0.2558 H   0  0  0  0  0  0  0  0  0  0  0  0
    0.6378   -0.1416    1.1159 H   0  0  0  0  0  0  0  0  0  0  0  0
    0.6441   -0.7715   -0.5514 H   0  0  0  0  0  0  0  0  0  0  0  0
    2.4382    2.0782   -0.6856 H   0  0  0  0  0  0  0  0  0  0  0  0
    3.7850    1.1121   -1.2853 H   0  0  0  0  0  0  0  0  0  0  0  0
    3.8045    1.7557    0.3798 H   0  0  0  0  0  0  0  0  0  0  0  0
    2.6719   -1.8960    0.8400 H   0  0  0  0  0  0  0  0  0  0  0  0
    5.2263   -0.2636    0.1524 H   0  0  0  0  0  0  0  0  0  0  0  0
    5.0153   -2.0010   -0.0800 H   0  0  0  0  0  0  0  0  0  0  0  0
    4.8554   -0.2485    2.7205 H   0  0  0  0  0  0  0  0  0  0  0  0
  1  2  1  0  0  0  0
  1  7  1  0  0  0  0
  1  8  1  0  0  0  0
  1  9  1  0  0  0  0
  2  3  1  0  0  0  0
  2  4  2  0  0  0  0
  3 10  1  0  0  0  0
  3 11  1  0  0  0  0
  3 12  1  0  0  0  0
  4  5  1  0  0  0  0
  4 13  1  0  0  0  0
  5  6  1  0  0  0  0
  5 14  1  0  0  0  0
  5 15  1  0  0  0  0
  6 16  1  0  0  0  0
M  END
$$$$
