
 OpenBabel01032512333D

 10  9  0  0  0  0  0  0  0  0999 V2000
    0.9974   -0.0356    0.0903 C   0  0  0  0  0  0  0  0  0  0  0  0
    2.5136   -0.0632    0.0903 C   0  0  0  0  0  0  0  0  0  0  0  0
    3.0671   -1.4665    0.0936 C   0  0  0  0  0  0  0  0  0  0  0  0
    2.3856   -2.4864    0.0946 O   0  0  0  0  0  0  0  0  0  0  0  0
    0.6332    0.9961    0.0879 H   0  0  0  0  0  0  0  0  0  0  0  0
    0.5955   -0.5388    0.9760 H   0  0  0  0  0  0  0  0  0  0  0  0
    0.5956   -0.5429   -0.7932 H   0  0  0  0  0  0  0  0  0  0  0  0
    2.8993    0.4510    0.9762 H   0  0  0  0  0  0  0  0  0  0  0  0
    2.8994    0.4469   -0.7981 H   0  0  0  0  0  0  0  0  0  0  0  0
    4.1688   -1.5324    0.0948 H   0  0  0  0  0  0  0  0  0  0  0  0
  1  2  1  0  0  0  0
  1  5  1  0  0  0  0
  1  6  1  0  0  0  0
  1  7  1  0  0  0  0
  2  3  1  0  0  0  0
  2  8  1  0  0  0  0
  2  9  1  0  0  0  0
  3  4  2  0  0  0  0
  3 10  1  0  0  0  0
M  END
$$$$
