
 OpenBabel02072511443D

 12 11  0  0  0  0  0  0  0  0999 V2000
    0.9968    0.0790   -0.0740 C   0  0  0  0  0  0  0  0  0  0  0  0
    2.5145    0.0489   -0.0699 C   0  0  0  0  0  0  0  0  0  0  0  0
    3.0483   -1.3538    0.1815 C   0  0  0  0  0  0  0  0  0  0  0  0
    4.4693   -1.3375    0.1786 O   0  0  0  0  0  0  0  0  0  0  0  0
    0.6369    1.0965   -0.2559 H   0  0  0  0  0  0  0  0  0  0  0  0
    0.5954   -0.2568    0.8874 H   0  0  0  0  0  0  0  0  0  0  0  0
    0.5947   -0.5690   -0.8593 H   0  0  0  0  0  0  0  0  0  0  0  0
    2.8996    0.7317    0.6968 H   0  0  0  0  0  0  0  0  0  0  0  0
    2.8961    0.4245   -1.0269 H   0  0  0  0  0  0  0  0  0  0  0  0
    2.7075   -2.0542   -0.5880 H   0  0  0  0  0  0  0  0  0  0  0  0
    2.7174   -1.7275    1.1555 H   0  0  0  0  0  0  0  0  0  0  0  0
    4.7565   -1.0297   -0.6982 H   0  0  0  0  0  0  0  0  0  0  0  0
  1  2  1  0  0  0  0
  1  5  1  0  0  0  0
  1  6  1  0  0  0  0
  1  7  1  0  0  0  0
  2  3  1  0  0  0  0
  2  8  1  0  0  0  0
  2  9  1  0  0  0  0
  3  4  1  0  0  0  0
  3 10  1  0  0  0  0
  3 11  1  0  0  0  0
  4 12  1  0  0  0  0
M  END
$$$$
