
 OpenBabel10142508443D

 27 27  0  0  0  0  0  0  0  0999 V2000
    2.5026   -1.5978    0.5527 C   0  0  0  0  0  0  0  0  0  0  0  0
    2.1458   -0.1594    0.2235 C   0  0  0  0  0  0  0  0  0  0  0  0
    2.9794    0.7048    0.9961 O   0  0  0  0  0  0  0  0  0  0  0  0
    2.6901    2.0427    0.9051 C   0  0  0  0  0  0  0  0  0  0  0  0
    2.1683    2.6478   -0.2385 C   0  0  0  0  0  0  0  0  0  0  0  0
    1.9167    4.0245   -0.2606 C   0  0  0  0  0  0  0  0  0  0  0  0
    2.1730    4.8218    0.8608 C   0  0  0  0  0  0  0  0  0  0  0  0
    2.7365    4.2219    1.9941 C   0  0  0  0  0  0  0  0  0  0  0  0
    2.9926    2.8458    2.0109 C   0  0  0  0  0  0  0  0  0  0  0  0
    3.5325    2.2669    3.1292 O   0  0  0  0  0  0  0  0  0  0  0  0
    1.9233    6.2722    0.8596 C   0  0  0  0  0  0  0  0  0  0  0  0
    0.9354    6.8663    0.1708 C   0  0  0  0  0  0  0  0  0  0  0  0
    0.6806    8.3386    0.1752 C   0  0  0  0  0  0  0  0  0  0  0  0
    1.8734   -2.2907   -0.0140 H   0  0  0  0  0  0  0  0  0  0  0  0
    2.3771   -1.7973    1.6214 H   0  0  0  0  0  0  0  0  0  0  0  0
    3.5513   -1.7976    0.3085 H   0  0  0  0  0  0  0  0  0  0  0  0
    1.0908    0.0181    0.4645 H   0  0  0  0  0  0  0  0  0  0  0  0
    2.3155   -0.0057   -0.8472 H   0  0  0  0  0  0  0  0  0  0  0  0
    1.9679    2.0824   -1.1413 H   0  0  0  0  0  0  0  0  0  0  0  0
    1.5299    4.4632   -1.1769 H   0  0  0  0  0  0  0  0  0  0  0  0
    2.9655    4.8289    2.8656 H   0  0  0  0  0  0  0  0  0  0  0  0
    3.7131    2.9562    3.7871 H   0  0  0  0  0  0  0  0  0  0  0  0
    2.5869    6.8709    1.4802 H   0  0  0  0  0  0  0  0  0  0  0  0
    0.2471    6.2782   -0.4318 H   0  0  0  0  0  0  0  0  0  0  0  0
    1.3795    8.8794    0.8198 H   0  0  0  0  0  0  0  0  0  0  0  0
   -0.3360    8.5378    0.5286 H   0  0  0  0  0  0  0  0  0  0  0  0
    0.7738    8.7346   -0.8410 H   0  0  0  0  0  0  0  0  0  0  0  0
  1  2  1  0  0  0  0
  1 14  1  0  0  0  0
  1 15  1  0  0  0  0
  1 16  1  0  0  0  0
  2  3  1  0  0  0  0
  2 17  1  0  0  0  0
  2 18  1  0  0  0  0
  3  4  1  0  0  0  0
  4  5  1  0  0  0  0
  4  9  2  0  0  0  0
  5  6  2  0  0  0  0
  5 19  1  0  0  0  0
  6  7  1  0  0  0  0
  6 20  1  0  0  0  0
  7  8  2  0  0  0  0
  7 11  1  0  0  0  0
  8  9  1  0  0  0  0
  8 21  1  0  0  0  0
  9 10  1  0  0  0  0
 10 22  1  0  0  0  0
 11 12  2  3  0  0  0
 11 23  1  0  0  0  0
 12 13  1  0  0  0  0
 12 24  1  0  0  0  0
 13 25  1  0  0  0  0
 13 26  1  0  0  0  0
 13 27  1  0  0  0  0
M  END
$$$$
