
 OpenBabel10212507173D

 10  9  0  0  0  0  0  0  0  0999 V2000
    1.0592   -0.0763   -0.0152 C   0  0  0  0  0  0  0  0  0  0  0  0
    2.5739   -0.1218   -0.0705 C   0  0  0  0  0  0  0  0  0  0  0  0
    3.1554   -1.0218   -1.1646 C   0  0  0  0  0  0  0  0  0  0  0  0
    2.3269   -1.6250   -1.9006 O   0  0  0  0  0  0  0  0  0  0  0  0
    4.4193   -1.0472   -1.1930 O   0  5  0  0  0  0  0  0  0  0  0  0
    0.7259    0.5858    0.7898 H   0  0  0  0  0  0  0  0  0  0  0  0
    0.6425   -1.0720    0.1689 H   0  0  0  0  0  0  0  0  0  0  0  0
    0.6425    0.2964   -0.9566 H   0  0  0  0  0  0  0  0  0  0  0  0
    2.9576   -0.4713    0.8954 H   0  0  0  0  0  0  0  0  0  0  0  0
    2.9576    0.8934   -0.2271 H   0  0  0  0  0  0  0  0  0  0  0  0
  1  2  1  0  0  0  0
  1  6  1  0  0  0  0
  1  7  1  0  0  0  0
  1  8  1  0  0  0  0
  2  3  1  0  0  0  0
  2  9  1  0  0  0  0
  2 10  1  0  0  0  0
  3  4  2  0  0  0  0
  3  5  1  0  0  0  0
M  CHG  1   5  -1
M  END
$$$$
