
 OpenBabel10142509583D

 33 33  0  0  0  0  0  0  0  0999 V2000
    1.3080   -0.1498   -1.0402 C   0  0  0  0  0  0  0  0  0  0  0  0
    2.4908    0.0279   -0.0982 C   0  0  0  0  0  0  0  0  0  0  0  0
    2.8735   -1.2654    0.3502 O   0  0  0  0  0  0  0  0  0  0  0  0
    3.9269   -1.3774    1.2175 C   0  0  0  0  0  0  0  0  0  0  0  0
    4.6771   -0.3152    1.7291 C   0  0  0  0  0  0  0  0  0  0  0  0
    5.7289   -0.5510    2.6366 C   0  0  0  0  0  0  0  0  0  0  0  0
    6.5019    0.5912    3.2470 C   0  0  0  0  0  0  0  0  0  0  0  0
    7.8976    0.4209    2.9970 O   0  0  0  0  0  0  0  0  0  0  0  0
    8.7115    1.4824    3.5097 C   0  0  0  0  0  0  0  0  0  0  0  0
    8.6390    1.5626    5.0325 C   0  0  0  0  0  0  0  0  0  0  0  0
   10.1496    1.1995    3.0802 C   0  0  0  0  0  0  0  0  0  0  0  0
    6.0145   -1.8671    3.0257 C   0  0  0  0  0  0  0  0  0  0  0  0
    5.2811   -2.9334    2.5144 C   0  0  0  0  0  0  0  0  0  0  0  0
    4.2453   -2.6858    1.6154 C   0  0  0  0  0  0  0  0  0  0  0  0
    3.5196   -3.7318    1.1110 O   0  0  0  0  0  0  0  0  0  0  0  0
    0.9689    0.8113   -1.4361 H   0  0  0  0  0  0  0  0  0  0  0  0
    0.4717   -0.6306   -0.5192 H   0  0  0  0  0  0  0  0  0  0  0  0
    1.5768   -0.8032   -1.8756 H   0  0  0  0  0  0  0  0  0  0  0  0
    2.1835    0.6569    0.7469 H   0  0  0  0  0  0  0  0  0  0  0  0
    3.3143    0.5053   -0.6422 H   0  0  0  0  0  0  0  0  0  0  0  0
    4.4583    0.7077    1.4415 H   0  0  0  0  0  0  0  0  0  0  0  0
    6.3075    0.5721    4.3238 H   0  0  0  0  0  0  0  0  0  0  0  0
    6.1697    1.5537    2.8460 H   0  0  0  0  0  0  0  0  0  0  0  0
    8.3929    2.4322    3.0649 H   0  0  0  0  0  0  0  0  0  0  0  0
    8.8153    0.5788    5.4811 H   0  0  0  0  0  0  0  0  0  0  0  0
    7.6503    1.8942    5.3642 H   0  0  0  0  0  0  0  0  0  0  0  0
    9.3709    2.2733    5.4318 H   0  0  0  0  0  0  0  0  0  0  0  0
   10.4809    0.2223    3.4494 H   0  0  0  0  0  0  0  0  0  0  0  0
   10.8361    1.9654    3.4530 H   0  0  0  0  0  0  0  0  0  0  0  0
   10.2274    1.1668    1.9886 H   0  0  0  0  0  0  0  0  0  0  0  0
    6.8157   -2.0592    3.7384 H   0  0  0  0  0  0  0  0  0  0  0  0
    5.5261   -3.9434    2.8271 H   0  0  0  0  0  0  0  0  0  0  0  0
    3.8844   -4.5612    1.4546 H   0  0  0  0  0  0  0  0  0  0  0  0
  1  2  1  0  0  0  0
  1 16  1  0  0  0  0
  1 17  1  0  0  0  0
  1 18  1  0  0  0  0
  2  3  1  0  0  0  0
  2 19  1  0  0  0  0
  2 20  1  0  0  0  0
  3  4  1  0  0  0  0
  4  5  1  0  0  0  0
  4 14  2  0  0  0  0
  5  6  2  0  0  0  0
  5 21  1  0  0  0  0
  6  7  1  0  0  0  0
  6 12  1  0  0  0  0
  7  8  1  0  0  0  0
  7 22  1  0  0  0  0
  7 23  1  0  0  0  0
  8  9  1  0  0  0  0
  9 10  1  0  0  0  0
  9 11  1  0  0  0  0
  9 24  1  0  0  0  0
 10 25  1  0  0  0  0
 10 26  1  0  0  0  0
 10 27  1  0  0  0  0
 11 28  1  0  0  0  0
 11 29  1  0  0  0  0
 11 30  1  0  0  0  0
 12 13  2  0  0  0  0
 12 31  1  0  0  0  0
 13 14  1  0  0  0  0
 13 32  1  0  0  0  0
 14 15  1  0  0  0  0
 15 33  1  0  0  0  0
M  END
$$$$
