
 OpenBabel12272415303D

 11 10  0  0  0  0  0  0  0  0999 V2000
    1.0735    0.0392    0.0213 C   0  0  0  0  0  0  0  0  0  0  0  0
    2.5927    0.0535    0.0451 C   0  0  0  0  0  0  0  0  0  0  0  0
    3.1255    0.7786    1.2696 C   0  0  0  0  0  0  0  0  0  0  0  0
    0.7131   -0.4877   -0.8679 H   0  0  0  0  0  0  0  0  0  0  0  0
    0.6723    1.0573   -0.0006 H   0  0  0  0  0  0  0  0  0  0  0  0
    0.6727   -0.4696    0.9037 H   0  0  0  0  0  0  0  0  0  0  0  0
    2.9678    0.5427   -0.8607 H   0  0  0  0  0  0  0  0  0  0  0  0
    2.9678   -0.9759    0.0388 H   0  0  0  0  0  0  0  0  0  0  0  0
    2.7873    1.8196    1.2866 H   0  0  0  0  0  0  0  0  0  0  0  0
    4.2199    0.7765    1.2660 H   0  0  0  0  0  0  0  0  0  0  0  0
    2.7876    0.2927    2.1906 H   0  0  0  0  0  0  0  0  0  0  0  0
  1  2  1  0  0  0  0
  1  4  1  0  0  0  0
  1  5  1  0  0  0  0
  1  6  1  0  0  0  0
  2  3  1  0  0  0  0
  2  7  1  0  0  0  0
  2  8  1  0  0  0  0
  3  9  1  0  0  0  0
  3 10  1  0  0  0  0
  3 11  1  0  0  0  0
M  END
$$$$
