
 OpenBabel08062510313D

 17 16  0  0  0  0  0  0  0  0999 V2000
    3.6131   -1.7133    0.6615 C   0  0  0  0  0  0  0  0  0  0  0  0
    2.8951   -0.1437    0.1043 S   0  0  0  0  0  0  0  0  0  0  0  0
    3.4325    0.9169    1.4751 C   0  0  0  0  0  0  0  0  0  0  0  0
    4.8783    0.9151    1.5242 N   0  0  0  0  0  0  0  0  0  0  0  0
    5.4043    1.7596    2.5793 C   0  0  0  0  0  0  0  0  0  0  0  0
    7.2108    1.6587    2.5071 S   0  0  0  0  0  0  0  0  0  0  0  0
    7.6032    2.6903    3.8628 C   0  0  0  0  0  0  0  0  0  0  0  0
    6.7536    3.2735    4.5247 O   0  0  0  0  0  0  0  0  0  0  0  0
    3.4084   -2.4853   -0.0844 H   0  0  0  0  0  0  0  0  0  0  0  0
    3.1662   -2.0184    1.6109 H   0  0  0  0  0  0  0  0  0  0  0  0
    4.6983   -1.6362    0.7734 H   0  0  0  0  0  0  0  0  0  0  0  0
    2.9898    0.5448    2.4052 H   0  0  0  0  0  0  0  0  0  0  0  0
    3.0445    1.9242    1.2892 H   0  0  0  0  0  0  0  0  0  0  0  0
    5.2333    1.2431    0.6284 H   0  0  0  0  0  0  0  0  0  0  0  0
    5.0600    1.4068    3.5590 H   0  0  0  0  0  0  0  0  0  0  0  0
    5.0922    2.8006    2.4413 H   0  0  0  0  0  0  0  0  0  0  0  0
    8.6787    2.7875    4.0813 H   0  0  0  0  0  0  0  0  0  0  0  0
  1  2  1  0  0  0  0
  1  9  1  0  0  0  0
  1 10  1  0  0  0  0
  1 11  1  0  0  0  0
  2  3  1  0  0  0  0
  3  4  1  0  0  0  0
  3 12  1  0  0  0  0
  3 13  1  0  0  0  0
  4  5  1  0  0  0  0
  4 14  1  0  0  0  0
  5  6  1  0  0  0  0
  5 15  1  0  0  0  0
  5 16  1  0  0  0  0
  6  7  1  0  0  0  0
  7  8  2  0  0  0  0
  7 17  1  0  0  0  0
M  END
$$$$
