
 OpenBabel07242505583D

 31 31  0  0  0  0  0  0  0  0999 V2000
    0.3710   -1.3514    2.4400 C   0  0  0  0  0  0  0  0  0  0  0  0
   -0.0118   -0.6582    1.1658 C   0  0  0  0  0  0  0  0  0  0  0  0
   -0.7135    0.5554    1.1856 C   0  0  0  0  0  0  0  0  0  0  0  0
   -1.0774    1.1956   -0.0085 C   0  0  0  0  0  0  0  0  0  0  0  0
   -0.7144    0.6134   -1.2297 C   0  0  0  0  0  0  0  0  0  0  0  0
   -0.0140   -0.5925   -1.2575 C   0  0  0  0  0  0  0  0  0  0  0  0
    0.3339   -1.2266   -0.0656 C   0  0  0  0  0  0  0  0  0  0  0  0
   -1.8276    2.5055    0.0194 C   0  0  0  0  0  0  0  0  0  0  0  0
   -0.8771    3.7048    0.0311 C   0  0  0  0  0  0  0  0  0  0  0  0
   -1.6396    5.0322    0.0375 C   0  0  0  0  0  0  0  0  0  0  0  0
   -0.6744    6.2167    0.0545 C   0  0  0  0  0  0  0  0  0  0  0  0
   -1.4043    7.5533    0.0617 C   0  0  0  0  0  0  0  0  0  0  0  0
   -0.4596    8.6159    0.0723 O   0  0  0  0  0  0  0  0  0  0  0  0
    0.0250   -0.7983    3.3191 H   0  0  0  0  0  0  0  0  0  0  0  0
    1.4600   -1.4433    2.5073 H   0  0  0  0  0  0  0  0  0  0  0  0
   -0.0768   -2.3502    2.4749 H   0  0  0  0  0  0  0  0  0  0  0  0
   -0.9819    1.0065    2.1387 H   0  0  0  0  0  0  0  0  0  0  0  0
   -0.9766    1.0973   -2.1676 H   0  0  0  0  0  0  0  0  0  0  0  0
    0.2610   -1.0386   -2.2095 H   0  0  0  0  0  0  0  0  0  0  0  0
    0.8785   -2.1673   -0.1012 H   0  0  0  0  0  0  0  0  0  0  0  0
   -2.4807    2.5321    0.9008 H   0  0  0  0  0  0  0  0  0  0  0  0
   -2.4942    2.5597   -0.8508 H   0  0  0  0  0  0  0  0  0  0  0  0
   -0.2205    3.6672   -0.8474 H   0  0  0  0  0  0  0  0  0  0  0  0
   -0.2266    3.6529    0.9133 H   0  0  0  0  0  0  0  0  0  0  0  0
   -2.2947    5.0780    0.9167 H   0  0  0  0  0  0  0  0  0  0  0  0
   -2.2828    5.0933   -0.8487 H   0  0  0  0  0  0  0  0  0  0  0  0
   -0.0088    6.1746   -0.8168 H   0  0  0  0  0  0  0  0  0  0  0  0
   -0.0205    6.1560    0.9334 H   0  0  0  0  0  0  0  0  0  0  0  0
   -2.0474    7.6537    0.9417 H   0  0  0  0  0  0  0  0  0  0  0  0
   -2.0249    7.6647   -0.8328 H   0  0  0  0  0  0  0  0  0  0  0  0
    0.0915    8.5116    0.8675 H   0  0  0  0  0  0  0  0  0  0  0  0
  1  2  1  0  0  0  0
  1 14  1  0  0  0  0
  1 15  1  0  0  0  0
  1 16  1  0  0  0  0
  2  3  2  0  0  0  0
  2  7  1  0  0  0  0
  3  4  1  0  0  0  0
  3 17  1  0  0  0  0
  4  5  2  0  0  0  0
  4  8  1  0  0  0  0
  5  6  1  0  0  0  0
  5 18  1  0  0  0  0
  6  7  2  0  0  0  0
  6 19  1  0  0  0  0
  7 20  1  0  0  0  0
  8  9  1  0  0  0  0
  8 21  1  0  0  0  0
  8 22  1  0  0  0  0
  9 10  1  0  0  0  0
  9 23  1  0  0  0  0
  9 24  1  0  0  0  0
 10 11  1  0  0  0  0
 10 25  1  0  0  0  0
 10 26  1  0  0  0  0
 11 12  1  0  0  0  0
 11 27  1  0  0  0  0
 11 28  1  0  0  0  0
 12 13  1  0  0  0  0
 12 29  1  0  0  0  0
 12 30  1  0  0  0  0
 13 31  1  0  0  0  0
M  END
$$$$
