
 OpenBabel09092406393D

 36 36  0  0  1  0  0  0  0  0999 V2000
    1.0689    0.0388   -0.0225 C   0  0  0  0  0  0  0  0  0  0  0  0
    2.5596    0.0385   -0.0425 C   0  0  0  0  0  0  0  0  0  0  0  0
    3.3309   -1.0520   -0.0978 C   0  0  0  0  0  0  0  0  0  0  0  0
    4.7841   -0.7155   -0.0671 C   0  0  0  0  0  0  0  0  0  0  0  0
    4.8025    0.7927   -0.4056 C   0  0  2  0  0  0  0  0  0  0  0  0
    3.3861    1.3101    0.0427 C   0  0  0  0  0  0  0  0  0  0  0  0
    3.4425    1.8052    1.5001 C   0  0  0  0  0  0  0  0  0  0  0  0
    2.8175    2.4407   -0.8305 C   0  0  0  0  0  0  0  0  0  0  0  0
    5.0986    1.0407   -1.9029 C   0  0  0  0  0  0  0  0  0  0  0  0
    6.4323    0.5445   -2.3970 C   0  0  0  0  0  0  0  0  0  0  0  0
    6.8598    0.6629   -3.6709 C   0  0  0  0  0  0  0  0  0  0  0  0
    6.0693    1.3476   -4.7575 C   0  0  0  0  0  0  0  0  0  0  0  0
    8.2039    0.1356   -4.0999 C   0  0  0  0  0  0  0  0  0  0  0  0
    8.0233   -0.8592   -5.0961 O   0  0  0  0  0  0  0  0  0  0  0  0
    0.6684   -0.9800   -0.0552 H   0  0  0  0  0  0  0  0  0  0  0  0
    0.6697    0.5761   -0.8879 H   0  0  0  0  0  0  0  0  0  0  0  0
    0.6955    0.5150    0.8889 H   0  0  0  0  0  0  0  0  0  0  0  0
    2.9648   -2.0706   -0.1288 H   0  0  0  0  0  0  0  0  0  0  0  0
    5.3410   -1.3276   -0.7818 H   0  0  0  0  0  0  0  0  0  0  0  0
    5.1875   -0.9028    0.9344 H   0  0  0  0  0  0  0  0  0  0  0  0
    5.5958    1.2831    0.1756 H   0  0  0  0  0  0  0  0  0  0  0  0
    3.8237    1.0366    2.1817 H   0  0  0  0  0  0  0  0  0  0  0  0
    2.4506    2.1027    1.8594 H   0  0  0  0  0  0  0  0  0  0  0  0
    4.0996    2.6785    1.5854 H   0  0  0  0  0  0  0  0  0  0  0  0
    2.6502    2.1217   -1.8651 H   0  0  0  0  0  0  0  0  0  0  0  0
    3.4906    3.3052   -0.8420 H   0  0  0  0  0  0  0  0  0  0  0  0
    1.8503    2.7899   -0.4498 H   0  0  0  0  0  0  0  0  0  0  0  0
    5.0818    2.1232   -2.0761 H   0  0  0  0  0  0  0  0  0  0  0  0
    4.3085    0.5806   -2.5090 H   0  0  0  0  0  0  0  0  0  0  0  0
    7.0801    0.0616   -1.6664 H   0  0  0  0  0  0  0  0  0  0  0  0
    5.1176    1.7574   -4.4054 H   0  0  0  0  0  0  0  0  0  0  0  0
    5.8390    0.6476   -5.5661 H   0  0  0  0  0  0  0  0  0  0  0  0
    6.6442    2.1833   -5.1699 H   0  0  0  0  0  0  0  0  0  0  0  0
    8.7585   -0.3138   -3.2701 H   0  0  0  0  0  0  0  0  0  0  0  0
    8.8170    0.9408   -4.5158 H   0  0  0  0  0  0  0  0  0  0  0  0
    7.4192   -1.5210   -4.7186 H   0  0  0  0  0  0  0  0  0  0  0  0
  1  2  1  0  0  0  0
  1 15  1  0  0  0  0
  1 16  1  0  0  0  0
  1 17  1  0  0  0  0
  2  3  2  0  0  0  0
  2  6  1  0  0  0  0
  3  4  1  0  0  0  0
  3 18  1  0  0  0  0
  4  5  1  0  0  0  0
  4 19  1  0  0  0  0
  4 20  1  0  0  0  0
  5  6  1  0  0  0  0
  5  9  1  0  0  0  0
  5 21  1  1  0  0  0
  6  7  1  0  0  0  0
  6  8  1  0  0  0  0
  7 22  1  0  0  0  0
  7 23  1  0  0  0  0
  7 24  1  0  0  0  0
  8 25  1  0  0  0  0
  8 26  1  0  0  0  0
  8 27  1  0  0  0  0
  9 10  1  0  0  0  0
  9 28  1  0  0  0  0
  9 29  1  0  0  0  0
 10 11  2  3  0  0  0
 10 30  1  0  0  0  0
 11 12  1  0  0  0  0
 11 13  1  0  0  0  0
 12 31  1  0  0  0  0
 12 32  1  0  0  0  0
 12 33  1  0  0  0  0
 13 14  1  0  0  0  0
 13 34  1  0  0  0  0
 13 35  1  0  0  0  0
 14 36  1  0  0  0  0
M  END
$$$$
