
 OpenBabel07202500143D

 22 22  0  0  0  0  0  0  0  0999 V2000
    0.9023   -0.6312   -0.6189 C   0  0  0  0  0  0  0  0  0  0  0  0
    2.3341   -0.2058   -0.3339 C   0  0  0  0  0  0  0  0  0  0  0  0
    2.8308    0.7943   -1.3461 C   0  0  0  0  0  0  0  0  0  0  0  0
    3.4032    0.2602   -2.4586 N   0  0  0  0  0  0  0  0  0  0  0  0
    3.8262    1.1372   -3.3940 C   0  0  0  0  0  0  0  0  0  0  0  0
    3.6888    2.4999   -3.2369 C   0  0  0  0  0  0  0  0  0  0  0  0
    3.1236    3.0465   -2.1415 N   0  0  0  0  0  0  0  0  0  0  0  0
    2.6828    2.1834   -1.1868 C   0  0  0  0  0  0  0  0  0  0  0  0
    2.0205    2.7788    0.0342 C   0  0  0  0  0  0  0  0  0  0  0  0
    1.8976    4.3001    0.0202 C   0  0  0  0  0  0  0  0  0  0  0  0
    0.5344   -1.2813    0.1809 H   0  0  0  0  0  0  0  0  0  0  0  0
    0.8391   -1.1873   -1.5612 H   0  0  0  0  0  0  0  0  0  0  0  0
    0.2289    0.2289   -0.6949 H   0  0  0  0  0  0  0  0  0  0  0  0
    2.9804   -1.0915   -0.3643 H   0  0  0  0  0  0  0  0  0  0  0  0
    2.4206    0.1911    0.6830 H   0  0  0  0  0  0  0  0  0  0  0  0
    4.2789    0.7084   -4.2795 H   0  0  0  0  0  0  0  0  0  0  0  0
    4.0309    3.1955   -3.9947 H   0  0  0  0  0  0  0  0  0  0  0  0
    2.5913    2.4910    0.9241 H   0  0  0  0  0  0  0  0  0  0  0  0
    1.0126    2.3597    0.1268 H   0  0  0  0  0  0  0  0  0  0  0  0
    2.8838    4.7752    0.0666 H   0  0  0  0  0  0  0  0  0  0  0  0
    1.3203    4.6390    0.8869 H   0  0  0  0  0  0  0  0  0  0  0  0
    1.3885    4.6560   -0.8822 H   0  0  0  0  0  0  0  0  0  0  0  0
  1  2  1  0  0  0  0
  1 11  1  0  0  0  0
  1 12  1  0  0  0  0
  1 13  1  0  0  0  0
  2  3  1  0  0  0  0
  2 14  1  0  0  0  0
  2 15  1  0  0  0  0
  3  4  2  0  0  0  0
  3  8  1  0  0  0  0
  4  5  1  0  0  0  0
  5  6  2  0  0  0  0
  5 16  1  0  0  0  0
  6  7  1  0  0  0  0
  6 17  1  0  0  0  0
  7  8  2  0  0  0  0
  8  9  1  0  0  0  0
  9 10  1  0  0  0  0
  9 18  1  0  0  0  0
  9 19  1  0  0  0  0
 10 20  1  0  0  0  0
 10 21  1  0  0  0  0
 10 22  1  0  0  0  0
M  END
$$$$
