
 OpenBabel11012410533D

 19 20  0  0  0  0  0  0  0  0999 V2000
   -0.2821    0.8545   -0.0000 C   0  0  0  0  0  0  0  0  0  0  0  0
    0.2005   -0.4553   -0.0038 C   0  0  0  0  0  0  0  0  0  0  0  0
    1.6313   -0.3858    0.0040 C   0  0  0  0  0  0  0  0  0  0  0  0
    2.5893   -1.5215    0.0160 C   0  0  0  0  0  0  0  0  0  0  0  0
    1.9663    0.9545    0.0003 C   0  0  0  0  0  0  0  0  0  0  0  0
    0.8113    1.6878   -0.0004 N   0  0  0  0  0  0  0  0  0  0  0  0
   -0.7337   -1.5119   -0.0109 C   0  0  0  0  0  0  0  0  0  0  0  0
   -2.1038   -1.2245   -0.0108 C   0  0  0  0  0  0  0  0  0  0  0  0
   -2.5519    0.0938   -0.0015 C   0  0  0  0  0  0  0  0  0  0  0  0
   -1.6486    1.1602    0.0036 C   0  0  0  0  0  0  0  0  0  0  0  0
    2.0757   -2.4873    0.0287 H   0  0  0  0  0  0  0  0  0  0  0  0
    3.2285   -1.4693    0.9036 H   0  0  0  0  0  0  0  0  0  0  0  0
    3.2286   -1.4905   -0.8720 H   0  0  0  0  0  0  0  0  0  0  0  0
    2.9302    1.4458    0.0006 H   0  0  0  0  0  0  0  0  0  0  0  0
    0.7614    2.6969   -0.0009 H   0  0  0  0  0  0  0  0  0  0  0  0
   -0.3976   -2.5442   -0.0170 H   0  0  0  0  0  0  0  0  0  0  0  0
   -2.8224   -2.0401   -0.0170 H   0  0  0  0  0  0  0  0  0  0  0  0
   -3.6201    0.2977    0.0014 H   0  0  0  0  0  0  0  0  0  0  0  0
   -2.0006    2.1864    0.0107 H   0  0  0  0  0  0  0  0  0  0  0  0
  1  2  2  0  0  0  0
  1  6  1  0  0  0  0
  1 10  1  0  0  0  0
  2  3  1  0  0  0  0
  2  7  1  0  0  0  0
  3  4  1  0  0  0  0
  3  5  2  0  0  0  0
  4 11  1  0  0  0  0
  4 12  1  0  0  0  0
  4 13  1  0  0  0  0
  5  6  1  0  0  0  0
  5 14  1  0  0  0  0
  6 15  1  0  0  0  0
  7  8  2  0  0  0  0
  7 16  1  0  0  0  0
  8  9  1  0  0  0  0
  8 17  1  0  0  0  0
  9 10  2  0  0  0  0
  9 18  1  0  0  0  0
 10 19  1  0  0  0  0
M  END
$$$$
