Test
 OpenBabel07152506593D

 17 17  0     0  0  0  0  0  0999 V2000
    2.9380   -0.0899    1.4986 C   0  0  0  0  0  0  0  0  0  0  0  0
    2.6376   -0.1847   -0.0089 C   0  0  0  0  0  0  0  0  0  0  0  0
    1.1318   -0.0439   -0.2990 C   0  0  0  0  0  0  0  0  0  0  0  0
    0.7315   -1.0501   -1.0882 C   0  0  0  0  0  0  0  0  0  0  0  0
    1.8636   -2.0761   -0.8951 C   0  0  0  0  0  0  0  0  0  0  0  0
    1.8889   -3.0741   -1.5609 O   0  0  0  0  0  0  0  0  0  0  0  0
    3.0867   -1.4524   -0.4949 O   0  0  0  0  0  0  0  0  0  0  0  0
   -0.6328   -1.4780   -1.0646 O   0  0  0  0  0  0  0  0  0  0  0  0
    0.3602    1.2675   -0.0614 C   0  0  0  0  0  0  0  0  0  0  0  0
    2.4414   -0.9049    2.0250 H   0  0  0  0  0  0  0  0  0  0  0  0
    2.5987    0.8640    1.9024 H   0  0  0  0  0  0  0  0  0  0  0  0
    4.0167   -0.1768    1.6293 H   0  0  0  0  0  0  0  0  0  0  0  0
    3.1814    0.6122   -0.5160 H   0  0  0  0  0  0  0  0  0  0  0  0
   -1.2153   -0.7044   -1.1194 H   0  0  0  0  0  0  0  0  0  0  0  0
    0.6935    1.7162    0.8743 H   0  0  0  0  0  0  0  0  0  0  0  0
   -0.7122    1.0785   -0.0117 H   0  0  0  0  0  0  0  0  0  0  0  0
    0.5708    1.9487   -0.8858 H   0  0  0  0  0  0  0  0  0  0  0  0
  1 10 1.00  0  0  0  0
  1 11 1.00  0  0  0  0
  1 12 1.00  0  0  0  0
  1  2 1.00  0  0  0  0
  2  3 1.00  0  0  0  0
  2  7 1.00  0  0  0  0
  2 13 1.00  0  0  0  0
  3  4 2.00  0  0  0  0
  3  9 1.00  0  0  0  0
  4  5 1.00  0  0  0  0
  4  8 1.00  0  0  0  0
  5  7 1.00  0  0  0  0
  6  5 2.00  0  0  0  0
  8 14 1.00  0  0  0  0
  9 15 1.00  0  0  0  0
  9 16 1.00  0  0  0  0
  9 17 1.00  0  0  0  0
M  END

