
 OpenBabel08312410393D

 15 14  0  0  0  0  0  0  0  0999 V2000
    0.9719    0.0852   -0.0396 C   0  0  0  0  0  0  0  0  0  0  0  0
    0.4924    0.6202    1.3127 C   0  0  0  0  0  0  0  0  0  0  0  0
    0.4925    0.9965   -1.1730 C   0  0  0  0  0  0  0  0  0  0  0  0
    0.4647   -1.3432   -0.2558 C   0  0  0  0  0  0  0  0  0  0  0  0
    2.8063    0.0517   -0.0446 S   0  0  0  0  0  0  0  0  0  0  0  0
   -0.6032    0.6434    1.3533 H   0  0  0  0  0  0  0  0  0  0  0  0
    0.8445    1.6426    1.4940 H   0  0  0  0  0  0  0  0  0  0  0  0
    0.8339   -0.0087    2.1431 H   0  0  0  0  0  0  0  0  0  0  0  0
   -0.6032    1.0308   -1.2048 H   0  0  0  0  0  0  0  0  0  0  0  0
    0.8340    0.6416   -2.1525 H   0  0  0  0  0  0  0  0  0  0  0  0
    0.8445    2.0268   -1.0434 H   0  0  0  0  0  0  0  0  0  0  0  0
   -0.6315   -1.3686   -0.2597 H   0  0  0  0  0  0  0  0  0  0  0  0
    0.8009   -2.0190    0.5391 H   0  0  0  0  0  0  0  0  0  0  0  0
    0.8011   -1.7532   -1.2153 H   0  0  0  0  0  0  0  0  0  0  0  0
    2.9921    1.3652    0.1543 H   0  0  0  0  0  0  0  0  0  0  0  0
  1  2  1  0  0  0  0
  1  3  1  0  0  0  0
  1  4  1  0  0  0  0
  1  5  1  0  0  0  0
  2  6  1  0  0  0  0
  2  7  1  0  0  0  0
  2  8  1  0  0  0  0
  3  9  1  0  0  0  0
  3 10  1  0  0  0  0
  3 11  1  0  0  0  0
  4 12  1  0  0  0  0
  4 13  1  0  0  0  0
  4 14  1  0  0  0  0
  5 15  1  0  0  0  0
M  END
$$$$
