
 OpenBabel11092409053D

 33 32  0  0  1  0  0  0  0  0999 V2000
    5.0839   -3.4144   -2.2207 C   0  0  0  0  0  0  0  0  0  0  0  0
    4.5542   -2.8994   -0.8924 C   0  0  0  0  0  0  0  0  0  0  0  0
    5.0402   -1.4812   -0.5322 C   0  0  1  0  0  0  0  0  0  0  0  0
    4.5543   -0.4331   -1.5399 C   0  0  0  0  0  0  0  0  0  0  0  0
    4.5852   -1.0730    0.8846 C   0  0  0  0  0  0  0  0  0  0  0  0
    5.0597   -1.9933    2.0152 C   0  0  0  0  0  0  0  0  0  0  0  0
    6.5868   -2.1096    2.1006 C   0  0  0  0  0  0  0  0  0  0  0  0
    7.1031   -3.1008    3.1624 C   0  0  0  0  0  0  0  0  0  0  0  0
    6.6328   -2.7397    4.5695 C   0  0  0  0  0  0  0  0  0  0  0  0
    6.7283   -4.5439    2.8175 C   0  0  0  0  0  0  0  0  0  0  0  0
    8.5354   -3.0407    3.1480 O   0  0  0  0  0  0  0  0  0  0  0  0
    4.7728   -4.4536   -2.3658 H   0  0  0  0  0  0  0  0  0  0  0  0
    6.1777   -3.3835   -2.2416 H   0  0  0  0  0  0  0  0  0  0  0  0
    4.6997   -2.8346   -3.0629 H   0  0  0  0  0  0  0  0  0  0  0  0
    4.8839   -3.6108   -0.1279 H   0  0  0  0  0  0  0  0  0  0  0  0
    3.4580   -2.9287   -0.8992 H   0  0  0  0  0  0  0  0  0  0  0  0
    6.1352   -1.4658   -0.5729 H   0  0  0  0  0  0  0  0  0  0  0  0
    3.4610   -0.3961   -1.5792 H   0  0  0  0  0  0  0  0  0  0  0  0
    4.9265   -0.6425   -2.5469 H   0  0  0  0  0  0  0  0  0  0  0  0
    4.9180    0.5625   -1.2645 H   0  0  0  0  0  0  0  0  0  0  0  0
    3.4882   -1.0350    0.9154 H   0  0  0  0  0  0  0  0  0  0  0  0
    4.9326   -0.0537    1.0981 H   0  0  0  0  0  0  0  0  0  0  0  0
    4.6000   -2.9799    1.9026 H   0  0  0  0  0  0  0  0  0  0  0  0
    4.6727   -1.5889    2.9581 H   0  0  0  0  0  0  0  0  0  0  0  0
    7.0082   -1.1149    2.2953 H   0  0  0  0  0  0  0  0  0  0  0  0
    7.0059   -2.4131    1.1360 H   0  0  0  0  0  0  0  0  0  0  0  0
    5.5504   -2.8469    4.6820 H   0  0  0  0  0  0  0  0  0  0  0  0
    6.9079   -1.7085    4.8190 H   0  0  0  0  0  0  0  0  0  0  0  0
    7.1161   -3.3794    5.3166 H   0  0  0  0  0  0  0  0  0  0  0  0
    5.6486   -4.7147    2.8579 H   0  0  0  0  0  0  0  0  0  0  0  0
    7.2086   -5.2441    3.5109 H   0  0  0  0  0  0  0  0  0  0  0  0
    7.0845   -4.8102    1.8159 H   0  0  0  0  0  0  0  0  0  0  0  0
    8.7993   -2.1287    3.3625 H   0  0  0  0  0  0  0  0  0  0  0  0
  1  2  1  0  0  0  0
  1 12  1  0  0  0  0
  1 13  1  0  0  0  0
  1 14  1  0  0  0  0
  2  3  1  0  0  0  0
  2 15  1  0  0  0  0
  2 16  1  0  0  0  0
  3  4  1  0  0  0  0
  3  5  1  0  0  0  0
  3 17  1  6  0  0  0
  4 18  1  0  0  0  0
  4 19  1  0  0  0  0
  4 20  1  0  0  0  0
  5  6  1  0  0  0  0
  5 21  1  0  0  0  0
  5 22  1  0  0  0  0
  6  7  1  0  0  0  0
  6 23  1  0  0  0  0
  6 24  1  0  0  0  0
  7  8  1  0  0  0  0
  7 25  1  0  0  0  0
  7 26  1  0  0  0  0
  8  9  1  0  0  0  0
  8 10  1  0  0  0  0
  8 11  1  0  0  0  0
  9 27  1  0  0  0  0
  9 28  1  0  0  0  0
  9 29  1  0  0  0  0
 10 30  1  0  0  0  0
 10 31  1  0  0  0  0
 10 32  1  0  0  0  0
 11 33  1  0  0  0  0
M  END
$$$$
