
 OpenBabel01032514373D

  8  8  0  0  0  0  0  0  0  0999 V2000
    1.2756    0.7613   -0.0067 C   0  0  0  0  0  0  0  0  0  0  0  0
   -0.0114    1.2554    0.0011 C   0  0  0  0  0  0  0  0  0  0  0  0
   -1.1300   -0.0452    0.0015 S   0  0  0  0  0  0  0  0  0  0  0  0
    0.1856   -1.1472   -0.0083 C   0  0  0  0  0  0  0  0  0  0  0  0
    1.3885   -0.6153   -0.0112 N   0  0  0  0  0  0  0  0  0  0  0  0
    2.1748    1.3656   -0.0096 H   0  0  0  0  0  0  0  0  0  0  0  0
   -0.3372    2.2853    0.0060 H   0  0  0  0  0  0  0  0  0  0  0  0
    0.0272   -2.2177   -0.0121 H   0  0  0  0  0  0  0  0  0  0  0  0
  1  2  2  0  0  0  0
  1  5  1  0  0  0  0
  1  6  1  0  0  0  0
  2  3  1  0  0  0  0
  2  7  1  0  0  0  0
  3  4  1  0  0  0  0
  4  5  2  0  0  0  0
  4  8  1  0  0  0  0
M  END
$$$$
