
 OpenBabel01072522383D

  8  7  0  0  0  0  0  0  0  0999 V2000
    1.0024    0.0376    0.0170 C   0  0  0  0  0  0  0  0  0  0  0  0
    0.5808    0.9305   -1.1646 C   0  0  0  0  0  0  0  0  0  0  0  0
    1.2643    0.8276   -2.2258 O   0  0  0  0  0  0  0  0  0  0  0  0
   -0.4472    1.6383   -0.9485 O   0  5  0  0  0  0  0  0  0  0  0  0
    2.8208    0.0341    0.1053 S   0  0  0  0  0  0  0  0  0  0  0  0
    0.6391   -0.9809   -0.1550 H   0  0  0  0  0  0  0  0  0  0  0  0
    0.5977    0.4066    0.9642 H   0  0  0  0  0  0  0  0  0  0  0  0
    2.9676    0.2095   -1.2249 H   0  0  0  0  0  0  0  0  0  0  0  0
  1  2  1  0  0  0  0
  1  5  1  0  0  0  0
  1  6  1  0  0  0  0
  1  7  1  0  0  0  0
  2  3  2  0  0  0  0
  2  4  1  0  0  0  0
  5  8  1  0  0  0  0
M  CHG  1   4  -1
M  END
$$$$
