
 OpenBabel01032514393D

 25 25  0  0  0  0  0  0  0  0999 V2000
    2.5537    1.2325    0.0187 C   0  0  0  0  0  0  0  0  0  0  0  0
    1.2905    0.4209    0.0173 C   0  0  0  0  0  0  0  0  0  0  0  0
    0.0353    1.0329    0.0560 C   0  0  0  0  0  0  0  0  0  0  0  0
   -1.1297    0.2578    0.0358 C   0  0  0  0  0  0  0  0  0  0  0  0
   -1.0830   -1.1474   -0.0279 C   0  0  0  0  0  0  0  0  0  0  0  0
    0.1871   -1.7444   -0.0505 C   0  0  0  0  0  0  0  0  0  0  0  0
    1.3580   -0.9730   -0.0213 C   0  0  0  0  0  0  0  0  0  0  0  0
   -2.3644   -1.9708   -0.1000 C   0  0  0  0  0  0  0  0  0  0  0  0
   -2.8177   -2.1788   -1.5505 C   0  0  0  0  0  0  0  0  0  0  0  0
   -2.2817   -3.3388    0.5906 C   0  0  0  0  0  0  0  0  0  0  0  0
   -2.3473    0.8781    0.0818 O   0  0  0  0  0  0  0  0  0  0  0  0
    2.3426    2.3067   -0.0080 H   0  0  0  0  0  0  0  0  0  0  0  0
    3.1579    0.9910   -0.8619 H   0  0  0  0  0  0  0  0  0  0  0  0
    3.1358    1.0245    0.9220 H   0  0  0  0  0  0  0  0  0  0  0  0
   -0.0283    2.1164    0.1002 H   0  0  0  0  0  0  0  0  0  0  0  0
    0.2960   -2.8247   -0.0950 H   0  0  0  0  0  0  0  0  0  0  0  0
    2.3230   -1.4744   -0.0337 H   0  0  0  0  0  0  0  0  0  0  0  0
   -3.1552   -1.4201    0.4248 H   0  0  0  0  0  0  0  0  0  0  0  0
   -2.0559   -2.7041   -2.1371 H   0  0  0  0  0  0  0  0  0  0  0  0
   -3.0281   -1.2261   -2.0480 H   0  0  0  0  0  0  0  0  0  0  0  0
   -3.7361   -2.7773   -1.5848 H   0  0  0  0  0  0  0  0  0  0  0  0
   -1.5626   -4.0039    0.1024 H   0  0  0  0  0  0  0  0  0  0  0  0
   -3.2563   -3.8421    0.5530 H   0  0  0  0  0  0  0  0  0  0  0  0
   -2.0001   -3.2360    1.6423 H   0  0  0  0  0  0  0  0  0  0  0  0
   -2.2037    1.8416    0.1051 H   0  0  0  0  0  0  0  0  0  0  0  0
  1  2  1  0  0  0  0
  1 12  1  0  0  0  0
  1 13  1  0  0  0  0
  1 14  1  0  0  0  0
  2  3  2  0  0  0  0
  2  7  1  0  0  0  0
  3  4  1  0  0  0  0
  3 15  1  0  0  0  0
  4  5  2  0  0  0  0
  4 11  1  0  0  0  0
  5  6  1  0  0  0  0
  5  8  1  0  0  0  0
  6  7  2  0  0  0  0
  6 16  1  0  0  0  0
  7 17  1  0  0  0  0
  8  9  1  0  0  0  0
  8 10  1  0  0  0  0
  8 18  1  0  0  0  0
  9 19  1  0  0  0  0
  9 20  1  0  0  0  0
  9 21  1  0  0  0  0
 10 22  1  0  0  0  0
 10 23  1  0  0  0  0
 10 24  1  0  0  0  0
 11 25  1  0  0  0  0
M  END
$$$$
