
 OpenBabel09082416423D

 45 46  0  0  1  0  0  0  0  0999 V2000
    3.4727    1.3735    0.1012 C   0  0  0  0  0  0  0  0  0  0  0  0
    2.1600    0.6157    0.3566 C   0  0  2  0  0  0  0  0  0  0  0  0
    2.1917   -0.7041   -0.4185 C   0  0  0  0  0  0  0  0  0  0  0  0
    1.0208   -1.6425   -0.0515 C   0  0  0  0  0  0  0  0  0  0  0  0
   -0.3105   -0.8861   -0.0018 C   0  0  0  0  0  0  0  0  0  0  0  0
   -0.3823    0.5182    0.0216 C   0  0  0  0  0  0  0  0  0  0  0  0
    0.8638    1.4285    0.0254 C   0  0  0  0  0  0  0  0  0  0  0  0
    0.7181    2.5315    1.1091 C   0  0  0  0  0  0  0  0  0  0  0  0
    0.9447    2.1165   -1.3586 C   0  0  0  0  0  0  0  0  0  0  0  0
   -1.6624    1.1153   -0.0073 C   0  0  0  0  0  0  0  0  0  0  0  0
   -2.8603    0.3796    0.0095 C   0  0  0  0  0  0  0  0  0  0  0  0
   -2.7819   -1.0171    0.0709 C   0  0  0  0  0  0  0  0  0  0  0  0
   -1.5167   -1.6251    0.0441 C   0  0  0  0  0  0  0  0  0  0  0  0
   -4.0031   -1.8899    0.1187 C   0  0  0  0  0  0  0  0  0  0  0  0
   -5.0623   -1.5023   -0.3777 O   0  0  0  0  0  0  0  0  0  0  0  0
   -3.9344   -3.2526    0.7683 C   0  0  0  0  0  0  0  0  0  0  0  0
   -4.1492    1.1572   -0.0272 C   0  0  0  0  0  0  0  0  0  0  0  0
    1.2734   -2.3001    1.3229 C   0  0  0  0  0  0  0  0  0  0  0  0
    1.0051   -2.7566   -1.1252 C   0  0  0  0  0  0  0  0  0  0  0  0
    4.3290    0.7676    0.4201 H   0  0  0  0  0  0  0  0  0  0  0  0
    3.5192    2.3101    0.6627 H   0  0  0  0  0  0  0  0  0  0  0  0
    3.6156    1.5988   -0.9598 H   0  0  0  0  0  0  0  0  0  0  0  0
    2.1499    0.3756    1.4282 H   0  0  0  0  0  0  0  0  0  0  0  0
    3.1427   -1.2220   -0.2333 H   0  0  0  0  0  0  0  0  0  0  0  0
    2.1785   -0.4881   -1.4954 H   0  0  0  0  0  0  0  0  0  0  0  0
    0.6003    2.0898    2.1058 H   0  0  0  0  0  0  0  0  0  0  0  0
   -0.1444    3.1839    0.9392 H   0  0  0  0  0  0  0  0  0  0  0  0
    1.5894    3.1927    1.1355 H   0  0  0  0  0  0  0  0  0  0  0  0
    1.0643    1.3879   -2.1676 H   0  0  0  0  0  0  0  0  0  0  0  0
    1.7755    2.8271   -1.4130 H   0  0  0  0  0  0  0  0  0  0  0  0
    0.0372    2.6903   -1.5814 H   0  0  0  0  0  0  0  0  0  0  0  0
   -1.7392    2.2005   -0.0578 H   0  0  0  0  0  0  0  0  0  0  0  0
   -1.4546   -2.7087    0.0405 H   0  0  0  0  0  0  0  0  0  0  0  0
   -2.9909   -3.4473    1.2820 H   0  0  0  0  0  0  0  0  0  0  0  0
   -4.0848   -4.0243    0.0057 H   0  0  0  0  0  0  0  0  0  0  0  0
   -4.7250   -3.3257    1.5206 H   0  0  0  0  0  0  0  0  0  0  0  0
   -3.9566    2.2364   -0.0844 H   0  0  0  0  0  0  0  0  0  0  0  0
   -4.7331    0.9860    0.8815 H   0  0  0  0  0  0  0  0  0  0  0  0
   -4.7358    0.9053   -0.9148 H   0  0  0  0  0  0  0  0  0  0  0  0
    1.2607   -1.5687    2.1379 H   0  0  0  0  0  0  0  0  0  0  0  0
    2.2431   -2.8104    1.3435 H   0  0  0  0  0  0  0  0  0  0  0  0
    0.5092   -3.0503    1.5568 H   0  0  0  0  0  0  0  0  0  0  0  0
    0.7600   -2.3497   -2.1133 H   0  0  0  0  0  0  0  0  0  0  0  0
    0.2782   -3.5458   -0.9099 H   0  0  0  0  0  0  0  0  0  0  0  0
    1.9868   -3.2446   -1.1947 H   0  0  0  0  0  0  0  0  0  0  0  0
  1  2  1  0  0  0  0
  1 20  1  0  0  0  0
  1 21  1  0  0  0  0
  1 22  1  0  0  0  0
  2  3  1  0  0  0  0
  2  7  1  0  0  0  0
  2 23  1  1  0  0  0
  3  4  1  0  0  0  0
  3 24  1  0  0  0  0
  3 25  1  0  0  0  0
  4  5  1  0  0  0  0
  4 18  1  0  0  0  0
  4 19  1  0  0  0  0
  5  6  2  0  0  0  0
  5 13  1  0  0  0  0
  6  7  1  0  0  0  0
  6 10  1  0  0  0  0
  7  8  1  0  0  0  0
  7  9  1  0  0  0  0
  8 26  1  0  0  0  0
  8 27  1  0  0  0  0
  8 28  1  0  0  0  0
  9 29  1  0  0  0  0
  9 30  1  0  0  0  0
  9 31  1  0  0  0  0
 10 11  2  0  0  0  0
 10 32  1  0  0  0  0
 11 12  1  0  0  0  0
 11 17  1  0  0  0  0
 12 13  2  0  0  0  0
 12 14  1  0  0  0  0
 13 33  1  0  0  0  0
 14 15  2  0  0  0  0
 14 16  1  0  0  0  0
 16 34  1  0  0  0  0
 16 35  1  0  0  0  0
 16 36  1  0  0  0  0
 17 37  1  0  0  0  0
 17 38  1  0  0  0  0
 17 39  1  0  0  0  0
 18 40  1  0  0  0  0
 18 41  1  0  0  0  0
 18 42  1  0  0  0  0
 19 43  1  0  0  0  0
 19 44  1  0  0  0  0
 19 45  1  0  0  0  0
M  END
$$$$
