
 OpenBabel12012416563D

 23 22  0  0  0  0  0  0  0  0999 V2000
    1.1139   -0.1850    0.2313 C   0  0  0  0  0  0  0  0  0  0  0  0
    2.6250   -0.0831    0.1463 C   0  0  0  0  0  0  0  0  0  0  0  0
    3.0786    1.0222   -0.7986 N   0  3  0  0  0  0  0  0  0  0  0  0
    2.4940    2.3924   -0.5110 C   0  0  0  0  0  0  0  0  0  0  0  0
    3.0034    2.9916    0.7843 C   0  0  0  0  0  0  0  0  0  0  0  0
    4.5918    0.9811   -0.9383 C   0  0  0  0  0  0  0  0  0  0  0  0
    5.1000    1.9587   -1.9806 C   0  0  0  0  0  0  0  0  0  0  0  0
    0.8337   -1.1119    0.7424 H   0  0  0  0  0  0  0  0  0  0  0  0
    0.6521   -0.1919   -0.7607 H   0  0  0  0  0  0  0  0  0  0  0  0
    0.6888    0.6397    0.8119 H   0  0  0  0  0  0  0  0  0  0  0  0
    3.0278   -1.0178   -0.2586 H   0  0  0  0  0  0  0  0  0  0  0  0
    3.0744    0.0993    1.1274 H   0  0  0  0  0  0  0  0  0  0  0  0
    2.7078    0.7603   -1.7234 H   0  0  0  0  0  0  0  0  0  0  0  0
    1.4050    2.2909   -0.4986 H   0  0  0  0  0  0  0  0  0  0  0  0
    2.7323    3.0357   -1.3645 H   0  0  0  0  0  0  0  0  0  0  0  0
    2.9008    2.3070    1.6298 H   0  0  0  0  0  0  0  0  0  0  0  0
    2.4315    3.8953    1.0216 H   0  0  0  0  0  0  0  0  0  0  0  0
    4.0540    3.2862    0.7017 H   0  0  0  0  0  0  0  0  0  0  0  0
    4.8475   -0.0391   -1.2463 H   0  0  0  0  0  0  0  0  0  0  0  0
    5.0299    1.1734    0.0460 H   0  0  0  0  0  0  0  0  0  0  0  0
    4.5826    1.8334   -2.9361 H   0  0  0  0  0  0  0  0  0  0  0  0
    6.1693    1.7936   -2.1504 H   0  0  0  0  0  0  0  0  0  0  0  0
    4.9856    2.9965   -1.6531 H   0  0  0  0  0  0  0  0  0  0  0  0
  1  2  1  0  0  0  0
  1  8  1  0  0  0  0
  1  9  1  0  0  0  0
  1 10  1  0  0  0  0
  2  3  1  0  0  0  0
  2 11  1  0  0  0  0
  2 12  1  0  0  0  0
  3  4  1  0  0  0  0
  3  6  1  0  0  0  0
  3 13  1  0  0  0  0
  4  5  1  0  0  0  0
  4 14  1  0  0  0  0
  4 15  1  0  0  0  0
  5 16  1  0  0  0  0
  5 17  1  0  0  0  0
  5 18  1  0  0  0  0
  6  7  1  0  0  0  0
  6 19  1  0  0  0  0
  6 20  1  0  0  0  0
  7 21  1  0  0  0  0
  7 22  1  0  0  0  0
  7 23  1  0  0  0  0
M  CHG  1   3   1
M  END
$$$$
