
 OpenBabel01032515033D

 34 33  0  0  0  0  0  0  0  0999 V2000
    0.9676    0.0621   -0.0573 C   0  0  0  0  0  0  0  0  0  0  0  0
    2.4851    0.0717   -0.0518 C   0  0  0  0  0  0  0  0  0  0  0  0
    3.0152    1.4895    0.1264 C   0  0  0  0  0  0  0  0  0  0  0  0
    4.5386    1.5029    0.1303 C   0  0  0  0  0  0  0  0  0  0  0  0
    5.0566    2.9238    0.3111 C   0  0  0  0  0  0  0  0  0  0  0  0
    6.5783    2.9389    0.3131 C   0  0  0  0  0  0  0  0  0  0  0  0
    7.0968    4.3589    0.4918 C   0  0  0  0  0  0  0  0  0  0  0  0
    8.6186    4.3690    0.4912 C   0  0  0  0  0  0  0  0  0  0  0  0
    9.1452    5.7850    0.6694 C   0  0  0  0  0  0  0  0  0  0  0  0
   10.6651    5.8001    0.6694 C   0  0  0  0  0  0  0  0  0  0  0  0
   11.1848    7.1996    0.8456 C   0  0  0  0  0  0  0  0  0  0  0  0
   10.4568    8.1861    0.9727 O   0  0  0  0  0  0  0  0  0  0  0  0
    0.5944   -0.9576   -0.1855 H   0  0  0  0  0  0  0  0  0  0  0  0
    0.5776    0.6764   -0.8743 H   0  0  0  0  0  0  0  0  0  0  0  0
    0.5734    0.4560    0.8863 H   0  0  0  0  0  0  0  0  0  0  0  0
    2.8560   -0.3496   -0.9941 H   0  0  0  0  0  0  0  0  0  0  0  0
    2.8523   -0.5690    0.7579 H   0  0  0  0  0  0  0  0  0  0  0  0
    2.6415    1.9096    1.0683 H   0  0  0  0  0  0  0  0  0  0  0  0
    2.6438    2.1295   -0.6827 H   0  0  0  0  0  0  0  0  0  0  0  0
    4.9169    1.0883   -0.8122 H   0  0  0  0  0  0  0  0  0  0  0  0
    4.9149    0.8658    0.9394 H   0  0  0  0  0  0  0  0  0  0  0  0
    4.6806    3.3397    1.2540 H   0  0  0  0  0  0  0  0  0  0  0  0
    4.6806    3.5626   -0.4973 H   0  0  0  0  0  0  0  0  0  0  0  0
    6.9547    2.5222   -0.6291 H   0  0  0  0  0  0  0  0  0  0  0  0
    6.9547    2.3014    1.1226 H   0  0  0  0  0  0  0  0  0  0  0  0
    6.7213    4.7751    1.4352 H   0  0  0  0  0  0  0  0  0  0  0  0
    6.7192    4.9965   -0.3165 H   0  0  0  0  0  0  0  0  0  0  0  0
    8.9915    3.9523   -0.4520 H   0  0  0  0  0  0  0  0  0  0  0  0
    8.9941    3.7308    1.2998 H   0  0  0  0  0  0  0  0  0  0  0  0
    8.7690    6.2070    1.6099 H   0  0  0  0  0  0  0  0  0  0  0  0
    8.7668    6.4277   -0.1355 H   0  0  0  0  0  0  0  0  0  0  0  0
   11.0546    5.4077   -0.2784 H   0  0  0  0  0  0  0  0  0  0  0  0
   11.0568    5.1843    1.4889 H   0  0  0  0  0  0  0  0  0  0  0  0
   12.2785    7.3130    0.8572 H   0  0  0  0  0  0  0  0  0  0  0  0
  1  2  1  0  0  0  0
  1 13  1  0  0  0  0
  1 14  1  0  0  0  0
  1 15  1  0  0  0  0
  2  3  1  0  0  0  0
  2 16  1  0  0  0  0
  2 17  1  0  0  0  0
  3  4  1  0  0  0  0
  3 18  1  0  0  0  0
  3 19  1  0  0  0  0
  4  5  1  0  0  0  0
  4 20  1  0  0  0  0
  4 21  1  0  0  0  0
  5  6  1  0  0  0  0
  5 22  1  0  0  0  0
  5 23  1  0  0  0  0
  6  7  1  0  0  0  0
  6 24  1  0  0  0  0
  6 25  1  0  0  0  0
  7  8  1  0  0  0  0
  7 26  1  0  0  0  0
  7 27  1  0  0  0  0
  8  9  1  0  0  0  0
  8 28  1  0  0  0  0
  8 29  1  0  0  0  0
  9 10  1  0  0  0  0
  9 30  1  0  0  0  0
  9 31  1  0  0  0  0
 10 11  1  0  0  0  0
 10 32  1  0  0  0  0
 10 33  1  0  0  0  0
 11 12  2  0  0  0  0
 11 34  1  0  0  0  0
M  END
$$$$
