
 OpenBabel10142510023D

 23 23  0  0  0  0  0  0  0  0999 V2000
    0.9224    0.8568   -0.2707 C   0  0  0  0  0  0  0  0  0  0  0  0
    2.4294    1.0050   -0.3641 C   0  0  0  0  0  0  0  0  0  0  0  0
    2.9789    0.9542    0.9507 O   0  0  0  0  0  0  0  0  0  0  0  0
    4.3362    1.1224    1.0636 C   0  0  0  0  0  0  0  0  0  0  0  0
    5.2116    1.2745   -0.0179 C   0  0  0  0  0  0  0  0  0  0  0  0
    6.5893    1.4474    0.1849 C   0  0  0  0  0  0  0  0  0  0  0  0
    7.5164    1.6146   -0.9830 C   0  0  0  0  0  0  0  0  0  0  0  0
    7.0921    1.4660    1.4898 C   0  0  0  0  0  0  0  0  0  0  0  0
    6.2335    1.3084    2.5774 C   0  0  0  0  0  0  0  0  0  0  0  0
    4.8647    1.1370    2.3609 C   0  0  0  0  0  0  0  0  0  0  0  0
    4.0255    0.9822    3.4327 O   0  0  0  0  0  0  0  0  0  0  0  0
    0.4700    0.8852   -1.2663 H   0  0  0  0  0  0  0  0  0  0  0  0
    0.4918    1.6603    0.3354 H   0  0  0  0  0  0  0  0  0  0  0  0
    0.6554   -0.0892    0.2117 H   0  0  0  0  0  0  0  0  0  0  0  0
    2.6585    1.9682   -0.8352 H   0  0  0  0  0  0  0  0  0  0  0  0
    2.8274    0.1837   -0.9714 H   0  0  0  0  0  0  0  0  0  0  0  0
    4.8442    1.2610   -1.0385 H   0  0  0  0  0  0  0  0  0  0  0  0
    6.9771    1.5606   -1.9349 H   0  0  0  0  0  0  0  0  0  0  0  0
    8.2712    0.8221   -0.9821 H   0  0  0  0  0  0  0  0  0  0  0  0
    8.0123    2.5889   -0.9341 H   0  0  0  0  0  0  0  0  0  0  0  0
    8.1572    1.6024    1.6642 H   0  0  0  0  0  0  0  0  0  0  0  0
    6.6436    1.3245    3.5828 H   0  0  0  0  0  0  0  0  0  0  0  0
    4.5492    0.9988    4.2482 H   0  0  0  0  0  0  0  0  0  0  0  0
  1  2  1  0  0  0  0
  1 12  1  0  0  0  0
  1 13  1  0  0  0  0
  1 14  1  0  0  0  0
  2  3  1  0  0  0  0
  2 15  1  0  0  0  0
  2 16  1  0  0  0  0
  3  4  1  0  0  0  0
  4  5  1  0  0  0  0
  4 10  2  0  0  0  0
  5  6  2  0  0  0  0
  5 17  1  0  0  0  0
  6  7  1  0  0  0  0
  6  8  1  0  0  0  0
  7 18  1  0  0  0  0
  7 19  1  0  0  0  0
  7 20  1  0  0  0  0
  8  9  2  0  0  0  0
  8 21  1  0  0  0  0
  9 10  1  0  0  0  0
  9 22  1  0  0  0  0
 10 11  1  0  0  0  0
 11 23  1  0  0  0  0
M  END
$$$$
